
**** 03/05/26 12:02:25 **** PSpice 23.1.0 (30 January 2024) *** ID# 0 ********

 ** Profile: "Retry-debug2"  [ C:\Users\WFE\Documents\automotive_dcdc\sims-PSpiceFiles\Retry\debug2.sim ] 


 ****     CIRCUIT DESCRIPTION


******************************************************************************




** Creating circuit file "debug2.cir" 
** WARNING: THIS AUTOMATICALLY GENERATED FILE MAY BE OVERWRITTEN BY SUBSEQUENT SIMULATIONS

*Libraries: 
* Profile Libraries :
* Local Libraries :
* From [PSPICE NETLIST] section of C:\cds_spb_home\cdssetup\OrCAD_PSpiceTIPSpice_Install\23.1.0\PSpice.ini file:
.lib "nom_pspti.lib" 
.lib "nom.lib" 

*Analysis directives: 
.TRAN  0 1000ns 0 
.OPTIONS ADVCONV
.OPTIONS FILEMODELSEARCH
.PROBE64 N([VIN])
.PROBE64 N([VOUT])
.INC "..\Retry.net" 



**** INCLUDING Retry.net ****
* source SIMS
C_C7         GND VCC  4.4u  TC=0,0 
M_M2         SW1 N09572 GND GND power_Mbreakn           
C_C6         GND N10018  0.22u  TC=0,0 
R_R3         GND N10062  140k TC=0,0 
R_R1         FB VOUT  215k TC=0,0 
L_L1         SW2 N09620  0.59u  
R_R11         0 N10106  1G TC=0,0 
R_R2         GND FB  11.3k TC=0,0 
R_R4         N09386 N09398  1 TC=0,0 
C_C9         GND VOUT  220u  TC=0,0 
D_D1         VCC HB1 Dbreak 
C_C3         VDDA GND  1n  TC=0,0 
C_C11         GND COMP  150p  TC=0,0 
C_C5         HB2 SW2  0.1u  TC=0,0 
R_R6         N09620 VOUT  2.7m TC=0,0 
C_C10         GND N10254  4.7n  TC=0,0 
C_C4         SW1 HB1  0.1u  TC=0,0 
R_R5         N09404 N09410  1 TC=0,0 
R_R9         0 N09862  1G TC=0,0 
D_D2         VCC HB2 Dbreak 
R_R8         N10254 COMP  17.4k TC=0,0 
M_M4         SW2 N09590 GND GND power_Mbreakn           
C_C2         GND DITH  1n  TC=0,0 
R_R7         N09494 VOUT  2.7m TC=0,0 
R_R10         N09868 0  1G TC=0,0 
M_M1         VIN N09386 SW1 SW1 power_Mbreakn           
L_L2         SW1 N09494  0.59u  
C_C1         SS GND  120n  TC=0,0 
R_R13         GND VOUT  400m TC=0,0 
C_C8         VIN GND  12u  TC=0,0 
M_M3         VIN N09410 SW2 SW2 power_Mbreakn           
R_R12         GND DITH  1k TC=0,0 
V_V1         VIN GND 35
X_U1         GND COMP COMP N09494 N09620 VDDA DITH VIN VIN GND FB GND HB1 HB2
+  N09398 N09404 N09386 N09410 N09572 N09590 N09572 N09590 VDDA N09862 N09868 GND
+  GND N10018 N10062 SS SS SW1 SW2 N10106 VCC VCC VOUT VDDA VIN VOUT VOUT
+  LM5143-Q1_TRANS PARAMS: MODE=0

**** RESUMING debug2.cir ****
.END

**** 03/05/26 12:02:25 **** PSpice 23.1.0 (30 January 2024) *** ID# 0 ********

 ** Profile: "Retry-debug2"  [ C:\Users\WFE\Documents\automotive_dcdc\sims-PSpiceFiles\Retry\debug2.sim ] 


 ****     MOSFET MODEL PARAMETERS


******************************************************************************




               power_Mbreakn   
               NMOS            
       LEVEL    3            
           L    1.000000E-06 
           W    1            
         VTO    3            
          KP   20.718860E-06 
       GAMMA    0            
         PHI     .6          
      LAMBDA    0            
          RD     .1          
          RS     .01         
          RG     .5          
         RDS    1.000000E+06 
          IS   10.000000E-15 
          JS    0            
          PB     .8          
        PBSW     .8          
         CBD    1.000000E-09 
          CJ    0            
        CJSW    0            
          TT    1.000000E-09 
        CGSO    1.000000E-09 
        CGDO  100.000000E-12 
        CGBO    0            
         TOX  100.000000E-09 
          XJ    0            
       UCRIT   10.000000E+03 
      DIOMOD    1            
         VFB    0            
        LETA    0            
        WETA    0            
          U0    0            
        TEMP    0            
         VDD    5            
       XPART    0            


Starting pseudo-transient algorithm.

INFO(ORPSIM-16594): To improve Pseudotransient Convergence and Performance, set following options to relax stabilization criteria for capacitor currents and inductor voltages: PTRANABSTOL=1e-5, PTRANVNTOL=1e-4

WARNING(ORPSIM-16534): Using high values of ITL4 for Speed Level > 0 may increase total simulation job time.

ERROR -- Convergence problem in transient bias point calculation


  Last node voltages tried were:

 NODE   VOLTAGE     NODE   VOLTAGE     NODE   VOLTAGE     NODE   VOLTAGE


(   FB)     .1999  (   SS)     .1281  (  GND)-189.3E-06  (  HB1)    7.4668      

(  HB2)    7.4400  (  SW1)     .1389  (  SW2)    -.0994  (  VCC)    3.8281      

(  VIN)   34.2080  ( COMP)    -.0202  ( DITH)-189.3E-06  ( VDDA)    4.8869      

( VOUT)    4.0072  (N09386)     .1389 (N09398)     .1389 (N09404)    -.0994     

(N09410)    -.0994 (N09494)    4.0045 (N09572)    4.8869 (N09590)    4.8869     

(N09620)    4.0092 (N09862)    0.0000 (N09868)    0.0000 (N10018)-207.3E-06     

(N10062)     .7819 (N10106)    0.0000 (N10254)     .5881 (X_U1.DN)    0.0000    

(X_U1.UP)    0.0000                   (X_U1.CLK)    0.0000                      

(X_U1.CLK2)    0.0000                 (X_U1.FPWM)     .9774                     

(X_U1.OVP1)    0.0000                 (X_U1.OVP2)    0.0000                     

(X_U1.PH11)-94.99E-21                 (X_U1.PH12) 157.4E-21                     

(X_U1.PH21)     .9774                 (X_U1.PH22)     .9774                     

(X_U1.CLKD1)    0.0000                (X_U1.CLKD2)    0.0000                    

(X_U1.CLKFB)     .9774                (X_U1.ILIM1)    0.0000                    

(X_U1.ILIM2)    0.0000                (X_U1.ISWH1)     .2727                    

(X_U1.ISWH2)     .3069                (X_U1.SDWN1)    0.0000                    

(X_U1.SDWN2)    0.0000                (X_U1.VFBI1)     .1910                    

(X_U1.VFBI2)-180.5E-06                (X_U1.VREF1)     .1252                    

(X_U1.VREF2)     .1252                (X_U1.CLKREF)     .9774                   

(X_U1.N73189)     .9774               (X_U1.N75844)     .9774                   

(X_U1.NORMAL)    0.0000               (X_U1.U10_PG)     .9774                   

(X_U1.U13_PG)     .9774               (X_U1.U19_VC)    2.4096                   

(X_U1.U4_ZCD)    0.0000               (X_U1.U4_ZTH)     .1955                   

(X_U1.U7_VCC)    3.8280               (X_U1.HICCUP1)    0.0000                  

(X_U1.HICCUP2)    0.0000              (X_U1.ISLOPE1)     .0294                  

(X_U1.ISLOPE2)     .1572              (X_U1.N148020)     .9774                  

(X_U1.N187506)    0.0000              (X_U1.PLL_DIS)    0.0000                  

(X_U1.U10_UVP)     .9774              (X_U1.U13_UVP)     .9774                  

(X_U1.U14_ZCD)    0.0000              (X_U1.U14_ZTH)     .1955                  

(X_U1.U19_VCI)    2.4096              (X_U1.U4_LDRV)     .9774                  

(X_U1.VINOK_B)    0.0000              (X_U1.CLK_SYNC)    0.0000                 

(X_U1.H_BLNCK1)    0.0000             (X_U1.H_BLNCK2)    0.0000                 

(X_U1.L_BLNCK1)     .9553             (X_U1.L_BLNCK2)     .9553                 

(X_U1.U14_LDRV)     .9774             (X_U1.U18_TONE)    0.0000                 

(X_U1.U2_DISCH)    0.0000             (X_U1.U5_H_END)    0.0000                 

(X_U1.UCLK1_SR)     .9774             (X_U1.UCLK2_SR)     .9774                 

(X_U1.N16669093)    0.0000            (X_U1.N16682465)    0.0000                

(X_U1.N16783791)    1.9547            (X_U1.N16807997)     .9774                

(X_U1.N16811359)    0.0000            (X_U1.N16816902) 61.22E-09                

(X_U1.N16824422)    0.0000            (X_U1.N16886382)     .9774                

(X_U1.N16916404)     .9774            (X_U1.PGOOD_EN1)     .9774                

(X_U1.PGOOD_EN2)     .9774            (X_U1.U10_OVP_N)     .9774                

(X_U1.U10_UVP_N)    0.0000            (X_U1.U11_DISCH)    0.0000                

(X_U1.U13_OVP_N)     .9774            (X_U1.U13_UVP_N)    0.0000                

(X_U1.U18_QB_DN)     .9774            (X_U1.U18_QB_UP)     .9774                

(X_U1.U18_QCLK1)    0.0000            (X_U1.U18_QCLK2)    0.0000                

(X_U1.U2_N25555)    0.0000            (X_U1.U2_N67870)     .7285                

(X_U1.U2_N67984)    4.6425            (X_U1.U2_N68066)     .4808                

(X_U1.U2_N71046) 977.4E-09            (X_U1.U2_N72189)    0.0000                

(X_U1.U2_N95734)-344.1E-27            (X_U1.U4_N08357) 221.5E-21                

(X_U1.U4_N08485)     .9774            (X_U1.U4_N08737)     .9774                

(X_U1.U4_N09129)     .9774            (X_U1.U4_N09375)    0.0000                

(X_U1.U4_N09637) 502.9E-24            (X_U1.U4_N70409)     .9774                

(X_U1.U4_N85373)     .9774            (X_U1.U4_N86437)     .9774                

(X_U1.U5_COUNT1)    0.0000            (X_U1.U5_COUNT2)    0.0000                

(X_U1.U7_EN_OK1)     .9774            (X_U1.U7_EN_OK2)     .9774                

(X_U1.U7_VCC_OK)     .9774            (X_U1.U7_VIN_OK)     .9774                

(X_U1.UCLK1_VC1) 35.26E-12            (X_U1.UCLK1_VC2)     .3698                

(X_U1.UCLK2_VC1)     .4248            (X_U1.UCLK2_VC2) 29.27E-12                

(X_U1.VOUT1_3P3)    0.0000            (X_U1.U10_GLITCH)     .9774               

(X_U1.U10_TDELAY)     .9774           (X_U1.U10_TONMIN)     .9774               

(X_U1.U11_N17872)     .9774           (X_U1.U11_N37577)    0.0000               

(X_U1.U11_N75584)     .7285           (X_U1.U11_N75696)    4.6425               

(X_U1.U11_N75748)     .4808           (X_U1.U11_N75810) 977.4E-09               

(X_U1.U11_N75836)    0.0000           (X_U1.U11_N96216)-344.1E-27               

(X_U1.U13_GLITCH)     .9774           (X_U1.U13_TDELAY)     .9774               

(X_U1.U13_TONMIN)     .9774           (X_U1.U14_N08357)-366.7E-21               

(X_U1.U14_N08485)     .9774           (X_U1.U14_N08737)     .9774               

(X_U1.U14_N09129)     .9774           (X_U1.U14_N09375)    0.0000               

(X_U1.U14_N09637)-832.5E-24           (X_U1.U14_N70409)     .9774               

(X_U1.U14_N85373)     .9774           (X_U1.U14_N86437)     .9774               

(X_U1.U18_PLL_EN)     .9774           (X_U1.U19_VDDBY2)    2.4434               

(X_U1.U4_N152364)    0.0000           (X_U1.U5_N107511)    0.0000               

(X_U1.U5_N107542)    4.6425           (X_U1.U5_N107559)     .9774               

(X_U1.U5_N107566)    0.0000           (X_U1.U5_N133651)     .9774               

(X_U1.U5_N133661)    0.0000           (X_U1.U5_N146142)    0.0000               

(X_U1.U7_ENOK_B1)    0.0000           (X_U1.U7_ENOK_B2)    0.0000               

(X_U1.U7_VCCOK_B)    0.0000           (X_U1.U7_VCCX_OK)     .9774               

(X_U1.UCLK1_VDC3)    2.9321           (X_U1.UCLK1_VREF)    1.1728               

(X_U1.UCLK2_VDC3)    2.9321           (X_U1.UCLK2_VREF)    1.1728               

(X_U1.ULTRA_LOW1)    0.0000           (X_U1.ULTRA_LOW2)    0.0000               

(X_U1.CLK_INT_DIS)    0.0000          (X_U1.INTERLEAVED)     .9774              

(X_U1.SSCOMPLETE1)-3.538E-18          (X_U1.SSCOMPLETE2)-3.538E-18              

(X_U1.TIME_PERIOD) 341.2E-09          (X_U1.U14_N152364)-292.7E-18              

(X_U1.U18_CLK1_PE)     .9774          (X_U1.U18_CLK2_PE)     .9774              

(X_U1.U18_N183829)    0.0000          (X_U1.U18_N183909)    0.0000              

(X_U1.U18_N184201)     .9774          (X_U1.U18_N184319)     .9774              

(X_U1.U18_N184411)     .9774          (X_U1.U18_N184513)    0.0000              

(X_U1.U18_N187036)   31.2760          (X_U1.U18_N187496)    0.0000              

(X_U1.U18_N187548)     .9774          (X_U1.U18_RESET_B)     .9774              

(X_U1.U19_N163174)    2.4114          (X_U1.U4_LDRV_INT)     .9774              

(X_U1.U5_I_PULSE1)    0.0000          (X_U1.U5_I_PULSE2)    0.0000              

(X_U1.U98_RT_FREQ) 146.8E+03          (X_U1.UCLK1_RAMP1)    2.9116              

(X_U1.UCLK1_VREF2)    2.4434          (X_U1.UCLK2_RAMP1)    2.8223              

(X_U1.UCLK2_VREF2)    2.4434          (X_U1.UDRV1_PH1_1)    0.0000              

(X_U1.UDRV1_PH2_1)     .9774          (X_U1.UDRV2_PH1_1)    0.0000              

(X_U1.UDRV2_PH2_1)     .9774          (X_U1.X_U4_U693.1)-60.71E-24              

(X_U1.X_U7_U613.1)     .9774          (X_U1.X_U7_U614.1)     .9774              

(X_U1.X_U7_U615.1)     .9774          (X_U1.X_U7_U620.1)     .9774              

(X_U1.X_U7_U627.1)     .9774          (X_U1.U14_LDRV_INT)     .9774             

(X_U1.U2_N16784744)    0.0000         (X_U1.U2_N16784762)     .3088             

(X_U1.U2_N16785529)     .9774         (X_U1.U2_N16785551)     .1867             

(X_U1.U4_LDRV_INTB)    0.0000         (X_U1.U4_N16790065)     .2932             

(X_U1.U4_N16837589)    0.0000         (X_U1.U4_N16837627)     .9774             

(X_U1.U4_N16877418)     .9774         (X_U1.U4_N16902652)     .2608             

(X_U1.U4_N16914282) 977.4E-09         (X_U1.U4_N16922955)     .9553             

(X_U1.U4_N16923004)     .9552         (X_U1.U5_HICCUP1_N)     .9774             

(X_U1.U5_HICCUP2_N)     .9774         (X_U1.U5_N16630382)    0.0000             

(X_U1.U5_N16648145)    0.0000         (X_U1.U5_N16652648)    0.0000             

(X_U1.U5_N16652652)    0.0000         (X_U1.U5_N16652662)  500.4200             

(X_U1.U5_N16652718)     .9774         (X_U1.U5_N16652752)     .9774             

(X_U1.U5_N16652904)    0.0000         (X_U1.U5_N16661334)     .9774             

(X_U1.U5_N16662055)    4.9534         (X_U1.U5_N16662059)    4.8869             

(X_U1.U5_N16664681)    0.0000         (X_U1.U5_N16665826)    3.9095             

(X_U1.U5_N16679698)     .9774         (X_U1.U5_N16682119)    4.0799             

(X_U1.U5_N16682177)    0.0000         (X_U1.U5_N16682213)     .9774             

(X_U1.U5_N16682227)    4.8869         (X_U1.U5_N16682325)    0.0000             

(X_U1.U5_N16682357)    3.9095         (X_U1.U5_N16683669)     .9774             

(X_U1.U5_N16777867)    0.0000         (X_U1.U5_N16777884)  500.4200             

(X_U1.U5_N16777933)     .9774         (X_U1.U5_N16777952)    0.0000             

(X_U1.U5_N16778004)    1.1728         (X_U1.U5_N16778062)    0.0000             

(X_U1.U5_N16864724)     .9774         (X_U1.U5_U3_N04955)    0.0000             

(X_U1.U5_U4_N04955)    0.0000         (X_U1.U7_N16734802)     .0880             

(X_U1.U7_N16734846)    3.1276         (X_U1.U7_N16735008)    1.1728             

(X_U1.U7_N16735086)    1.9547         (X_U1.U7_N16735276)     .0880             

(X_U1.U7_N16735320)    3.2253         (X_U1.U7_N16735430)    4.2027             

(X_U1.U7_N16735502)     .1955         (X_U1.U7_N16735566)    3.9166             

(X_U1.U7_N16747479)    1.1728         (X_U1.U7_N16747493)    1.9547             

(X_U1.U7_N16772254)   33.4340         (X_U1.U7_N16781951)     .9052             

(X_U1.U7_N16784507)     .9052         (X_U1.UCLK1_ENSYNC)    0.0000             

(X_U1.X_U10_U613.1)     .9774         (X_U1.X_U10_U614.1)     .9774             

(X_U1.X_U13_U613.1)     .9774         (X_U1.X_U13_U614.1)     .9774             

(X_U1.X_U14_U693.1) 8.911E-06         (X_U1.X_U2_U3.YINT)    0.0000             

(X_U1.X_U2_U5.YINT)    0.0000         (X_U1.X_U2_U6.YINT)    0.0000             

(X_U1.X_U5_U30.my5)     .9774         (X_U1.X_U5_U30.qbr)     .9774             

(X_U1.X_U5_U30.qqq)    -.0351         (X_U1.X_U5_U31.my5)     .9774             

(X_U1.X_U5_U31.qbr)     .9774         (X_U1.X_U5_U31.qqq)    -.0351             

(X_U1.X_U5_U639.ch)    0.0000         (X_U1.X_U5_U642.ch)    0.0000             

(X_U1.X_U98_U676.1)     .9774         (X_U1.U10_N16625533)     .0199            

(X_U1.U10_N16626981)     .0199        (X_U1.U10_N16627165)     .6451            

(X_U1.U10_N16787180)     .5395        (X_U1.U10_N16799779)    0.0000            

(X_U1.U10_N16803363)    0.0000        (X_U1.U10_N16805765)     .9774            

(X_U1.U10_U1_N02680)     .9702        (X_U1.U10_U2_N00140)     .9774            

(X_U1.U10_U2_N00220)    0.0000        (X_U1.U10_U2_N00780)     .9773            

(X_U1.U10_U2_N02470)     .9774        (X_U1.U10_U2_N03610)    0.0000            

(X_U1.U10_U3_N04955)    0.0000        (X_U1.U11_CHOOSE3P3)    0.0000            

(X_U1.U11_N16784744)    0.0000        (X_U1.U11_N16784762)     .1220            

(X_U1.U11_N16785549)-176.4E-06        (X_U1.U13_N16625533)     .0199            

(X_U1.U13_N16626981)     .0199        (X_U1.U13_N16627165)     .6451            

(X_U1.U13_N16787180)     .5395        (X_U1.U13_N16799779)    0.0000            

(X_U1.U13_N16803363)    0.0000        (X_U1.U13_N16805765)     .9774            

(X_U1.U13_U1_N02680)     .9702        (X_U1.U13_U2_N00140)     .9774            

(X_U1.U13_U2_N00220)    0.0000        (X_U1.U13_U2_N00780)     .9773            

(X_U1.U13_U2_N02470)     .9774        (X_U1.U13_U2_N03610)    0.0000            

(X_U1.U13_U3_N04955)    0.0000        (X_U1.U14_LDRV_INTB)-152.9E-18            

(X_U1.U14_N16790065)     .2932        (X_U1.U14_N16837589)-3.453E-18            

(X_U1.U14_N16837627)     .9774        (X_U1.U14_N16877418)     .9774            

(X_U1.U14_N16902652)     .3164        (X_U1.U14_N16914282) 977.4E-09            

(X_U1.U14_N16922955)     .9553        (X_U1.U14_N16923004)     .9552            

(X_U1.U18_DISCHARGE)    0.0000        (X_U1.U18_PLL_COUNT)   29.4340            

(X_U1.U2_ADJ_DETECT)     .9774        (X_U1.U2_CHOOSE_ADJ)     .1954            

(X_U1.U97_N16773228)   15.6380        (X_U1.U97_N16779114)   15.6380            

(X_U1.U97_N16785670)    0.0000        (X_U1.U97_N16786708)    0.0000            

(X_U1.U97_N16788036)    0.0000        (X_U1.U97_ULTRA_LOW)    0.0000            

(X_U1.U98_N16769147)    1.9547        (X_U1.U98_N16769333)    1.1728            

(X_U1.U98_N16776010)    1.2507        (X_U1.U98_N16776592)    1.1728            

(X_U1.U98_N16777841)    1.2504        (X_U1.U98_N16783053) 172.1E+03            

(X_U1.U98_N16784765) 114.7E+03        (X_U1.U98_N16785649)     .9774            

(X_U1.U98_N16785854)    0.0000        (X_U1.U98_N16804679)     .9374            

(X_U1.U98_N16804691)     .0195        (X_U1.U98_N16804696)     .9774            

(X_U1.U98_N16807781)     .9774        (X_U1.U98_SYNC_FREQ) 97.74E+03            

(X_U1.U99_N16774936)     .7819        (X_U1.UCLK1_CLK_INT)    0.0000            

(X_U1.UCLK1_FAKEPWM)    0.0000        (X_U1.UCLK1_N105129) 18.66E-06            

(X_U1.UCLK1_N105603)     .9774        (X_U1.UCLK1_N142689)     .9774            

(X_U1.UCLK1_N142694)    0.0000        (X_U1.UCLK1_N143410)    0.0000            

(X_U1.UCLK1_N148013)    0.0000        (X_U1.UCLK1_TIMEBY4)    0.0000            

(X_U1.UCLK2_CLK_INT)    0.0000        (X_U1.UCLK2_FAKEPWM)    0.0000            

(X_U1.UCLK2_N105129)     .9774        (X_U1.UCLK2_N105603)     .9774            

(X_U1.UCLK2_N142689)    0.0000        (X_U1.UCLK2_N142694)     .9774            

(X_U1.UCLK2_TIMEBY4)    0.0000        (X_U1.UDRV1_PREBIAS)     .9774            

(X_U1.UDRV2_PREBIAS)     .9774        (X_U1.UEA2_COMP_INT)    1.9554            

(X_U1.X_U11_U3.YINT)    0.0000        (X_U1.X_U11_U5.YINT)    0.0000            

(X_U1.X_U11_U6.YINT)    0.0000        (X_U1.X_U18_U1.YINT)    0.0000            

(X_U1.X_U18_U143.ch)     .9774        (X_U1.X_U18_U2.YINT)     .9774            

(X_U1.X_U18_U3.YINT)    0.0000        (X_U1.X_U18_U4.YINT)    0.0000            

(X_U1.X_U18_U5.YINT)    0.0000        (X_U1.X_U18_U6.YINT)     .9774            

(X_U1.X_U18_U7.YINT)     .9774        (X_U1.X_U18_U8.YINT)     .9774            

(X_U1.X_U18_U9.YINT)     .9774        (X_U1.X_U2_U634.my5)     .9774            

(X_U1.X_U2_U634.qbr)    0.0000        (X_U1.X_U2_U634.qqq)    1.0705            

(X_U1.X_U4_U690.my5)     .9774        (X_U1.X_U4_U690.qbr)    0.0000            

(X_U1.X_U4_U690.qqq)    1.0705        (X_U1.X_U5_U30.qint)    -.0359            

(X_U1.X_U5_U31.qint)    -.0359        (X_U1.X_U5_U640.my5)     .9774            

(X_U1.X_U5_U640.qbr)    0.0000        (X_U1.X_U5_U640.qqq)    1.0002            

(X_U1.X_U5_U641.my5)     .9774        (X_U1.X_U5_U641.qbr)    0.0000            

(X_U1.X_U5_U641.qqq)    1.0006        (X_U1.X_U97_U1.Yint)    0.0000            

(X_U1.X_U97_U2.Yint)    0.0000        (X_U1.X_U97_U4.YINT)    0.0000            

(X_U1.X_U97_U5.YINT)    0.0000        (X_U1.X_U97_U6.YINT)    0.0000            

(X_U1.X_U97_U7.YINT)    0.0000        (X_U1.X_U97_U8.YINT)    0.0000            

(X_U1.X_U98_U143.ch)     .9774        (X_U1.U11_ADJ_DETECT)-1.825E-12           

(X_U1.U11_CHOOSE_ADJ)-184.8E-06       (X_U1.U4_L_BLNCK_DCM)     .9774           

(X_U1.UCLK1_SLOPE_CH)    0.0000       (X_U1.UCLK2_SLOPE_CH)    0.0000           

(X_U1.UDRV1_CSASLOPE)     .2953       (X_U1.UDRV2_CSASLOPE)     .4536           

(X_U1.UEA1_N16743331)    1.9547       (X_U1.UEA1_N16743581)    0.0000           

(X_U1.UEA1_N16743799)    -.0195       (X_U1.UEA2_N16743331)    1.9547           

(X_U1.UEA2_N16743581)    0.0000       (X_U1.UEA2_N16743799)    -.0195           

(X_U1.X_U11_U634.my5)     .9774       (X_U1.X_U11_U634.qbr)    0.0000           

(X_U1.X_U11_U634.qqq)    1.0183       (X_U1.X_U14_U690.my5)     .9774           

(X_U1.X_U14_U690.qbr)    0.0000       (X_U1.X_U14_U690.qqq)    1.0705           

(X_U1.X_U18_U144.my5)     .9774       (X_U1.X_U18_U144.qbr)    0.0000           

(X_U1.X_U18_U144.qqq)     .9935       (X_U1.X_U18_U22.YINT)    0.0000           

(X_U1.X_U18_U23.YINT)     .9774       (X_U1.X_U18_U24.YINT)     .9774           

(X_U1.X_U18_U25.YINT)    0.0000       (X_U1.X_U18_U28.YINT)    0.0000           

(X_U1.X_U2_U626.YINT)     .1954       (X_U1.X_U2_U627.Yint)    0.0000           

(X_U1.X_U2_U630.YINT)     .1910       (X_U1.X_U2_U631.Yint)     .9774           

(X_U1.X_U2_U633.Yint)    0.0000       (X_U1.X_U2_U634.qint)    1.0952           

(X_U1.X_U4_U612.YINT)    0.0000       (X_U1.X_U4_U613.YINT)     .9774           

(X_U1.X_U4_U648.YINT)     .9774       (X_U1.X_U4_U650.YINT)     .9774           

(X_U1.X_U4_U651.YINT)     .9774       (X_U1.X_U4_U652.YINT)     .9774           

(X_U1.X_U4_U653.YINT)     .9774       (X_U1.X_U4_U655.YINT)     .9774           

(X_U1.X_U4_U657.YINT)     .9774       (X_U1.X_U4_U685.YINT)     .9774           

(X_U1.X_U4_U687.YINT)     .9774       (X_U1.X_U4_U688.YINT)    0.0000           

(X_U1.X_U4_U690.qint)    1.0952       (X_U1.X_U4_U691.YINT)    0.0000           

(X_U1.X_U4_U692.YINT)    0.0000       (X_U1.X_U4_U693.INM1)     .0553           

(X_U1.X_U4_U693.INP1)    0.0000       (X_U1.X_U4_U693.INP2)    0.0000           

(X_U1.X_U5_U30.myvss)    0.0000       (X_U1.X_U5_U30.qqqd1)    0.0000           

(X_U1.X_U5_U31.myvss)    0.0000       (X_U1.X_U5_U31.qqqd1)    0.0000           

(X_U1.X_U5_U608.YINT)    0.0000       (X_U1.X_U5_U609.Yint)    0.0000           

(X_U1.X_U5_U612.Yint)    0.0000       (X_U1.X_U5_U613.YINT)    0.0000           

(X_U1.X_U5_U615.YINT)     .9774       (X_U1.X_U5_U616.Yint)    0.0000           

(X_U1.X_U5_U617.YINT)     .9774       (X_U1.X_U5_U618.Yint)     .9774           

(X_U1.X_U5_U619.Yint)     .9774       (X_U1.X_U5_U629.Yint)     .9774           

(X_U1.X_U5_U630.YINT)    0.0000       (X_U1.X_U5_U631.YINT)    0.0000           

(X_U1.X_U5_U632.YINT)    0.0000       (X_U1.X_U5_U633.YINT)    0.0000           

(X_U1.X_U5_U634.YINT)    0.0000       (X_U1.X_U5_U637.YINT)    0.0000           

(X_U1.X_U5_U638.YINT)    0.0000       (X_U1.X_U5_U639.meas)    0.0000           

(X_U1.X_U5_U640.qint)    1.0233       (X_U1.X_U5_U641.qint)    1.0238           

(X_U1.X_U5_U642.meas)    0.0000       (X_U1.X_U7_U613.INM1)  -30.3770           

(X_U1.X_U7_U613.INP1)    0.0000       (X_U1.X_U7_U613.INP2)     .0860           

(X_U1.X_U7_U614.INM1)  -31.5230       (X_U1.X_U7_U614.INP1)    0.0000           

(X_U1.X_U7_U614.INP2)    1.1463       (X_U1.X_U7_U615.INM1)  -30.2820           

(X_U1.X_U7_U615.INP1)    0.0000       (X_U1.X_U7_U615.INP2)     .0860           

(X_U1.X_U7_U616.YINT)    0.0000       (X_U1.X_U7_U618.YINT)    0.0000           

(X_U1.X_U7_U620.INM1)     .1911       (X_U1.X_U7_U620.INP1)    0.0000           

(X_U1.X_U7_U620.INP2)     .1911       (X_U1.X_U7_U621.YINT)    3.9166           

(X_U1.X_U7_U624.YINT)    0.0000       (X_U1.X_U7_U626.YINT)   33.4340           

(X_U1.X_U7_U627.INM1)  -31.5230       (X_U1.X_U7_U627.INP1)    0.0000           

(X_U1.X_U7_U627.INP2)    1.1463       (X_U1.X_U7_U629.YINT)    0.0000           

(X_U1.X_U7_U630.YINT)    0.0000       (X_U1.X_U7_U631.YINT)    0.0000           

(X_U1.X_UDRV1_U848.1)    0.0000       (X_U1.X_UDRV2_U848.1)     .9774           

(X_U1.X_UEA1_U1.YINT)    0.0000       (X_U1.X_UEA2_U1.YINT)    0.0000           

(X_U1.U14_L_BLNCK_DCM)     .9774      (X_U1.U4_L_BLNCK_FPWM)     .9774          

(X_U1.U97_16PWM_RAMP1)    2.8956      (X_U1.U97_16PWM_RAMP2)    1.8940          

(X_U1.UCLK1_CLKEXTEND)    0.0000      (X_U1.UCLK1_DISCHARGE) 309.0E-09          

(X_U1.UCLK1_N16748920)    1.9547      (X_U1.UCLK1_N16748938)    0.0000          

(X_U1.UCLK1_N16750120)    0.0000      (X_U1.UCLK1_N16802829)    0.0000          

(X_U1.UCLK1_N16910733)    0.0000      (X_U1.UCLK1_N16913784)    0.0000          

(X_U1.UCLK1_N16941463)    0.0000      (X_U1.UCLK1_N16941559)     .9774          

(X_U1.UCLK1_N16941562)     .9774      (X_U1.UCLK2_CLKEXTEND)    0.0000          

(X_U1.UCLK2_DISCHARGE)     .9774      (X_U1.UCLK2_N16748920)    1.9547          

(X_U1.UCLK2_N16748938)    0.0000      (X_U1.UCLK2_N16750120)    0.0000          

(X_U1.UCLK2_N16778810)     .5864      (X_U1.UCLK2_N16780211)    0.0000          

(X_U1.UCLK2_N16780801)     .5864      (X_U1.UCLK2_N16795843)    0.0000          

(X_U1.UCLK2_N16796127)     .9774      (X_U1.UCLK2_N16824360)    0.0000          

(X_U1.UCLK2_N16824391)    0.0000      (X_U1.UCLK2_N16824411)    0.0000          

(X_U1.UCLK2_N16833602)     .9774      (X_U1.UCLK2_N16833698)     .9774          

(X_U1.UCLK2_N16833701)     .9774      (X_U1.UDRV1_N16757820)     .9774          

(X_U1.UDRV1_N16757826)     .9774      (X_U1.UDRV1_N16757852)    0.0000          

(X_U1.UDRV1_N16758148)    0.0000      (X_U1.UDRV1_N16761308)-359.0E-30          

(X_U1.UDRV1_N16761314)    0.0000      (X_U1.UDRV1_N16761336)     .9774          

(X_U1.UDRV1_N16762313)    0.0000      (X_U1.UDRV1_N16762321)     .9774          

(X_U1.UDRV1_N16764046)     .9774      (X_U1.UDRV1_N16778236)     .2730          

(X_U1.UDRV1_N16781726)    1.1494      (X_U1.UDRV1_N16805723) 977.4E-06          

(X_U1.UDRV1_N16812981)     .9774      (X_U1.UDRV2_N16757820)     .9774          

(X_U1.UDRV2_N16757826)     .9774      (X_U1.UDRV2_N16757852)    0.0000          

(X_U1.UDRV2_N16758148)     .9774      (X_U1.UDRV2_N16761308)-1.109E-27          

(X_U1.UDRV2_N16761314) 337.1E-30      (X_U1.UDRV2_N16761336)     .9774          

(X_U1.UDRV2_N16762313)    0.0000      (X_U1.UDRV2_N16762321)     .9774          

(X_U1.UDRV2_N16764046)     .9774      (X_U1.UDRV2_N16778236)     .2730          

(X_U1.UDRV2_N16781726)    1.1494      (X_U1.UDRV2_N16805723) 977.4E-06          

(X_U1.UDRV2_N16812981)     .9774      (X_U1.X_U10_U613.INM1)    -.3406          

(X_U1.X_U10_U613.INP1)    0.0000      (X_U1.X_U10_U613.INP2)     .0195          

(X_U1.X_U10_U614.INM1)    -.4438      (X_U1.X_U10_U614.INP1)    0.0000          

(X_U1.X_U10_U614.INP2)     .0195      (X_U1.X_U10_U616.YINT)    0.0000          

(X_U1.X_U10_U617.YINT)    0.0000      (X_U1.X_U10_U618.YINT)     .9774          

(X_U1.X_U11_U626.YINT)-185.0E-06      (X_U1.X_U11_U627.Yint)    0.0000          

(X_U1.X_U11_U630.YINT)-180.6E-06      (X_U1.X_U11_U631.Yint)    0.0000          

(X_U1.X_U11_U633.Yint)    0.0000      (X_U1.X_U11_U634.qint)    1.0419          

(X_U1.X_U13_U613.INM1)    -.5275      (X_U1.X_U13_U613.INP1)    0.0000          

(X_U1.X_U13_U613.INP2)     .0195      (X_U1.X_U13_U614.INM1)    -.6306          

(X_U1.X_U13_U614.INP1)    0.0000      (X_U1.X_U13_U614.INP2)     .0195          

(X_U1.X_U13_U616.YINT)    0.0000      (X_U1.X_U13_U617.YINT)    0.0000          

(X_U1.X_U13_U618.YINT)     .9774      (X_U1.X_U14_U612.YINT)    0.0000          

(X_U1.X_U14_U613.YINT)     .9774      (X_U1.X_U14_U648.YINT)     .9774          

(X_U1.X_U14_U650.YINT)     .9774      (X_U1.X_U14_U651.YINT)     .9774          

(X_U1.X_U14_U652.YINT)     .9774      (X_U1.X_U14_U653.YINT)     .9774          

(X_U1.X_U14_U655.YINT)     .9774      (X_U1.X_U14_U657.YINT)     .9774          

(X_U1.X_U14_U685.YINT)     .9774      (X_U1.X_U14_U687.YINT)     .9774          

(X_U1.X_U14_U688.YINT)    0.0000      (X_U1.X_U14_U690.qint)    1.0952          

(X_U1.X_U14_U691.YINT)    0.0000      (X_U1.X_U14_U692.YINT)    0.0000          

(X_U1.X_U14_U693.INM1)     .2882      (X_U1.X_U14_U693.INP1)    0.0000          

(X_U1.X_U14_U693.INP2)    0.0000      (X_U1.X_U18_U143.meas)     .9774          

(X_U1.X_U18_U144.qint)    1.0165      (X_U1.X_U18_U145.YINT)     .9774          

(X_U1.X_U18_U27.YINT1)    0.0000      (X_U1.X_U18_U27.YINT2)    0.0000          

(X_U1.X_U18_U27.YINT3)     .9774      (X_U1.X_U18_U29.YINT1)     .9774          

(X_U1.X_U18_U29.YINT2)     .9774      (X_U1.X_U18_U29.YINT3)    0.0000          

(X_U1.X_U18_U30.YINT1)     .9774      (X_U1.X_U18_U30.YINT2)     .9774          

(X_U1.X_U18_U30.YINT3)    0.0000      (X_U1.X_U2_U634.myvss)    0.0000          

(X_U1.X_U2_U634.qqqd1)     .9774      (X_U1.X_U4_U690.myvss)    0.0000          

(X_U1.X_U4_U690.qqqd1)     .9774      (X_U1.X_U5_U607.YINT1)    0.0000          

(X_U1.X_U5_U607.YINT2)    0.0000      (X_U1.X_U5_U607.YINT3)     .9774          

(X_U1.X_U5_U610.YINT1)    0.0000      (X_U1.X_U5_U610.YINT2)    0.0000          

(X_U1.X_U5_U610.YINT3)     .9774      (X_U1.X_U5_U611.YINT1)     .9774          

(X_U1.X_U5_U611.YINT2)     .9761      (X_U1.X_U5_U611.YINT3)    0.0000          

(X_U1.X_U5_U614.YINT1)    0.0000      (X_U1.X_U5_U614.YINT2)    0.0000          

(X_U1.X_U5_U614.YINT3)     .9774      (X_U1.X_U5_U639.reset)     .9774          

(X_U1.X_U5_U640.myvss)    0.0000      (X_U1.X_U5_U640.qqqd1)     .9774          

(X_U1.X_U5_U641.myvss)    0.0000      (X_U1.X_U5_U641.qqqd1)     .9774          

(X_U1.X_U5_U642.reset)     .9774      (X_U1.X_U98_U143.meas)     .9774          

(X_U1.X_U98_U676.INM1)   -2.8658      (X_U1.X_U98_U676.INP1)    0.0000          

(X_U1.X_U98_U676.INP2)    1.1463      (X_U1.X_U98_U677.Yint)     .9774          

(X_U1.X_U98_U678.Yint)     .9774      (X_U1.X_U98_U679.Yint)    0.0000          

(X_U1.X_U98_U680.YINT)    0.0000      (X_U1.X_UDRV1_U5.Yint)     .9774          

(X_U1.X_UDRV1_U6.Yint)    0.0000      (X_U1.X_UDRV2_U5.Yint)     .9774          

(X_U1.X_UDRV2_U6.Yint)    0.0000      (X_U1.U14_L_BLNCK_FPWM)     .9774         

(X_U1.U97_16PWM_COUNT1)    0.0000     (X_U1.U97_16PWM_COUNT2)    0.0000         

(X_U1.UCLK1_DISCHARGEB)     .9774     (X_U1.UCLK2_DISCHARGEB)    0.0000         

(X_U1.UCLK2_SYNCCLKOUT)    0.0000     (X_U1.X_U11_U634.myvss)    0.0000         

(X_U1.X_U11_U634.qqqd1)     .9774     (X_U1.X_U14_U690.myvss)    0.0000         

(X_U1.X_U14_U690.qqqd1)     .9774     (X_U1.X_U18_U143.reset)    0.0000         

(X_U1.X_U18_U144.myvss)    0.0000     (X_U1.X_U18_U144.qqqd1)     .9774         

(X_U1.X_U5_U30.x3.YINT)    0.0000     (X_U1.X_U5_U31.x3.YINT)    0.0000         

(X_U1.X_U5_U639.reset2)     .9774     (X_U1.X_U5_U642.reset2)     .9774         

(X_U1.X_U98_U143.reset)    0.0000     (X_U1.X_UCLK1_U704.my5)     .9774         

(X_U1.X_UCLK1_U704.qbr)     .9774     (X_U1.X_UCLK1_U704.qqq)    -.0547         

(X_U1.X_UCLK1_U716.my5)    4.8869     (X_U1.X_UCLK1_U716.qbr)     .9774         

(X_U1.X_UCLK1_U716.qqq)    -.0547     (X_U1.X_UCLK1_U838.my5)     .9774         

(X_U1.X_UCLK1_U838.qbr)     .9774     (X_U1.X_UCLK1_U838.qqq)    -.0547         

(X_U1.X_UCLK2_U716.my5)    1.9547     (X_U1.X_UCLK2_U716.qbr)    1.9547         

(X_U1.X_UCLK2_U716.qqq)    -.1152     (X_U1.X_UCLK2_U718.my5)    4.8869         

(X_U1.X_UCLK2_U718.qbr)     .9774     (X_U1.X_UCLK2_U718.qqq)    -.0506         

(X_U1.X_UCLK2_U838.my5)     .9774     (X_U1.X_UCLK2_U838.qbr)    0.0000         

(X_U1.X_UCLK2_U838.qqq)    1.0089     (X_U1.X_UDRV1_U629.my5)     .9774         

(X_U1.X_UDRV1_U629.qbr)     .9774     (X_U1.X_UDRV1_U629.qqq)    -.1152         

(X_U1.X_UDRV1_U847.my5)     .9774     (X_U1.X_UDRV1_U847.qbr)     .9774         

(X_U1.X_UDRV1_U847.qqq)    -.0474     (X_U1.X_UDRV2_U629.my5)     .9774         

(X_U1.X_UDRV2_U629.qbr)     .9774     (X_U1.X_UDRV2_U629.qqq)    -.1152         

(X_U1.X_UDRV2_U847.my5)     .9774     (X_U1.X_UDRV2_U847.qbr)     .9774         

(X_U1.X_UDRV2_U847.qqq)    -.1152     (X_U1.U5_COUNTER1_RESET)    0.0000        

(X_U1.U5_COUNTER2_RESET)    0.0000    (X_U1.X_U18_U143.reset2)    0.0000        

(X_U1.X_U2_U634.x3.YINT)     .9774    (X_U1.X_U4_U690.x3.YINT)     .9774        

(X_U1.X_U5_U3_U618.YINT)    0.0000    (X_U1.X_U5_U4_U618.YINT)    0.0000        

(X_U1.X_U5_U640.x3.YINT)     .9774    (X_U1.X_U5_U641.x3.YINT)     .9774        

(X_U1.X_U98_U143.reset2)    0.0000    (X_U1.X_UCLK1_U131.Yint)    0.0000        

(X_U1.X_UCLK1_U145.YINT)    0.0000    (X_U1.X_UCLK1_U146.YINT)     .9774        

(X_U1.X_UCLK1_U678.Yint)    0.0000    (X_U1.X_UCLK1_U679.Yint)    0.0000        

(X_U1.X_UCLK1_U685.YINT)    0.0000    (X_U1.X_UCLK1_U690.YINT)     .9774        

(X_U1.X_UCLK1_U691.YINT)     .9774    (X_U1.X_UCLK1_U695.YINT)    0.0000        

(X_U1.X_UCLK1_U698.YINT)     .9774    (X_U1.X_UCLK1_U699.YINT)    0.0000        

(X_U1.X_UCLK1_U703.YINT)    0.0000    (X_U1.X_UCLK1_U704.qint)    -.0559        

(X_U1.X_UCLK1_U705.YINT)    0.0000    (X_U1.X_UCLK1_U706.YINT)    0.0000        

(X_U1.X_UCLK1_U708.YINT)    0.0000    (X_U1.X_UCLK1_U713.YINT)     .9774        

(X_U1.X_UCLK1_U714.YINT)    0.0000    (X_U1.X_UCLK1_U715.YINT)    0.0000        

(X_U1.X_UCLK1_U716.qint)    -.0560    (X_U1.X_UCLK1_U836.YINT)     .9774        

(X_U1.X_UCLK1_U837.YINT)    0.0000    (X_U1.X_UCLK1_U838.qint)    -.0559        

(X_U1.X_UCLK1_U839.YINT)    0.0000    (X_U1.X_UCLK2_U131.Yint)    0.0000        

(X_U1.X_UCLK2_U132.Yint)    0.0000    (X_U1.X_UCLK2_U133.Yint)    0.0000        

(X_U1.X_UCLK2_U145.YINT)    0.0000    (X_U1.X_UCLK2_U146.YINT)     .9774        

(X_U1.X_UCLK2_U678.Yint)    0.0000    (X_U1.X_UCLK2_U679.Yint)    0.0000        

(X_U1.X_UCLK2_U685.YINT)    0.0000    (X_U1.X_UCLK2_U690.YINT)     .9774        

(X_U1.X_UCLK2_U691.YINT)     .9774    (X_U1.X_UCLK2_U695.YINT)     .9774        

(X_U1.X_UCLK2_U698.YINT)    0.0000    (X_U1.X_UCLK2_U699.YINT)     .9774        

(X_U1.X_UCLK2_U705.YINT)    0.0000    (X_U1.X_UCLK2_U708.YINT)    0.0000        

(X_U1.X_UCLK2_U713.YINT)    0.0000    (X_U1.X_UCLK2_U714.YINT)     .9774        

(X_U1.X_UCLK2_U716.qint)    -.1179    (X_U1.X_UCLK2_U717.YINT)     .9774        

(X_U1.X_UCLK2_U718.qint)    -.0517    (X_U1.X_UCLK2_U836.YINT)    0.0000        

(X_U1.X_UCLK2_U837.YINT)    0.0000    (X_U1.X_UCLK2_U838.qint)    1.0322        

(X_U1.X_UCLK2_U839.YINT)    0.0000    (X_U1.X_UDRV1_U629.qint)    -.1179        

(X_U1.X_UDRV1_U825.YINT)    0.0000    (X_U1.X_UDRV1_U827.YINT)    0.0000        

(X_U1.X_UDRV1_U828.YINT)     .9774    (X_U1.X_UDRV1_U835.YINT)     .9774        

(X_U1.X_UDRV1_U841.YINT)     .9774    (X_U1.X_UDRV1_U842.YINT)    0.0000        

(X_U1.X_UDRV1_U847.qint)    -.0485    (X_U1.X_UDRV1_U848.INM1)     .0643        

(X_U1.X_UDRV1_U848.INP1)    0.0000    (X_U1.X_UDRV1_U848.INP2)    0.0000        

(X_U1.X_UDRV1_U849.YINT)     .9774    (X_U1.X_UDRV2_U629.qint)    -.1179        

(X_U1.X_UDRV2_U825.YINT)    0.0000    (X_U1.X_UDRV2_U827.YINT)    0.0000        

(X_U1.X_UDRV2_U828.YINT)     .9774    (X_U1.X_UDRV2_U835.YINT)     .9774        

(X_U1.X_UDRV2_U841.YINT)     .9774    (X_U1.X_UDRV2_U842.YINT)    0.0000        

(X_U1.X_UDRV2_U847.qint)    -.1179    (X_U1.X_UDRV2_U848.INM1)    -.1226        

(X_U1.X_UDRV2_U848.INP1)    0.0000    (X_U1.X_UDRV2_U848.INP2) 955.3E-06        

(X_U1.X_UDRV2_U849.YINT)     .9774    (X_U1.X_U10_U1_U828.YINT)     .9774       

(X_U1.X_U10_U2_U618.YINT)    0.0000   (X_U1.X_U10_U2_U620.YINT)     .9774       

(X_U1.X_U10_U2_U621.YINT)    0.0000   (X_U1.X_U10_U3_U618.YINT)    0.0000       

(X_U1.X_U11_U634.x3.YINT)     .9774   (X_U1.X_U13_U1_U828.YINT)     .9774       

(X_U1.X_U13_U2_U618.YINT)    0.0000   (X_U1.X_U13_U2_U620.YINT)     .9774       

(X_U1.X_U13_U2_U621.YINT)    0.0000   (X_U1.X_U13_U3_U618.YINT)    0.0000       

(X_U1.X_U14_U690.x3.YINT)     .9774   (X_U1.X_U18_U144.x3.YINT)     .9774       

(X_U1.X_U5_U3_U607.YINT1)     .9774   (X_U1.X_U5_U3_U607.YINT2)     .9774       

(X_U1.X_U5_U3_U607.YINT3)    0.0000   (X_U1.X_U5_U4_U607.YINT1)     .9774       

(X_U1.X_U5_U4_U607.YINT2)     .9774   (X_U1.X_U5_U4_U607.YINT3)    0.0000       

(X_U1.X_UCLK1_U704.myvss)    0.0000   (X_U1.X_UCLK1_U704.qqqd1)    0.0000       

(X_U1.X_UCLK1_U716.qqqd1)    0.0000   (X_U1.X_UCLK1_U838.myvss)    0.0000       

(X_U1.X_UCLK1_U838.qqqd1)    0.0000   (X_U1.X_UCLK2_U716.myvss)    0.0000       

(X_U1.X_UCLK2_U716.qqqd1)    0.0000   (X_U1.X_UCLK2_U718.qqqd1)    0.0000       

(X_U1.X_UCLK2_U838.myvss)    0.0000   (X_U1.X_UCLK2_U838.qqqd1)     .9774       

(X_U1.X_UDRV1_U629.myvss)    0.0000   (X_U1.X_UDRV1_U629.qqqd1)    0.0000       

(X_U1.X_UDRV1_U826.YINT1)    0.0000   (X_U1.X_UDRV1_U826.YINT2)    0.0000       

(X_U1.X_UDRV1_U826.YINT3)     .9774   (X_U1.X_UDRV1_U847.myvss)    0.0000       

(X_U1.X_UDRV1_U847.qqqd1)    0.0000   (X_U1.X_UDRV2_U629.myvss)    0.0000       

(X_U1.X_UDRV2_U629.qqqd1)    0.0000   (X_U1.X_UDRV2_U826.YINT1)    0.0000       

(X_U1.X_UDRV2_U826.YINT2)    0.0000   (X_U1.X_UDRV2_U826.YINT3)     .9774       

(X_U1.X_UDRV2_U847.myvss)    0.0000   (X_U1.X_UDRV2_U847.qqqd1)    0.0000       

(X_U1.X_U10_U2_U607.YINT1)     .9774  (X_U1.X_U10_U2_U607.YINT2)     .9774      

(X_U1.X_U10_U2_U607.YINT3)    0.0000  (X_U1.X_U10_U2_U608.YINT1)    0.0000      

(X_U1.X_U10_U2_U608.YINT2)    0.0000  (X_U1.X_U10_U2_U608.YINT3)     .9774      

(X_U1.X_U10_U3_U607.YINT1)     .9774  (X_U1.X_U10_U3_U607.YINT2)     .9774      

(X_U1.X_U10_U3_U607.YINT3)    0.0000  (X_U1.X_U13_U2_U607.YINT1)     .9774      

(X_U1.X_U13_U2_U607.YINT2)     .9774  (X_U1.X_U13_U2_U607.YINT3)    0.0000      

(X_U1.X_U13_U2_U608.YINT1)    0.0000  (X_U1.X_U13_U2_U608.YINT2)    0.0000      

(X_U1.X_U13_U2_U608.YINT3)     .9774  (X_U1.X_U13_U3_U607.YINT1)     .9774      

(X_U1.X_U13_U3_U607.YINT2)     .9774  (X_U1.X_U13_U3_U607.YINT3)    0.0000      

(X_U1.X_UCLK1_U716.clkdel) 14.72E-21  (X_U1.X_UCLK1_U716.clkint)    0.0000      

(X_U1.X_UCLK2_U718.clkdel)     .9774  (X_U1.X_UCLK2_U718.clkint)    0.0000      

(X_U1.X_UCLK1_U704.x3.YINT)    0.0000 (X_U1.X_UCLK1_U716.clkdel1) 678.8E-24     

(X_U1.X_UCLK1_U716.x1.YINT)    0.0000 (X_U1.X_UCLK1_U716.x2.YINT)    0.0000     

(X_U1.X_UCLK1_U838.x3.YINT)    0.0000 (X_U1.X_UCLK2_U716.x3.YINT)    0.0000     

(X_U1.X_UCLK2_U718.clkdel1)     .9774 (X_U1.X_UCLK2_U718.x1.YINT)     .9774     

(X_U1.X_UCLK2_U718.x2.YINT)    0.0000 (X_U1.X_UCLK2_U838.x3.YINT)     .9774     

(X_U1.X_UDRV1_U629.x3.YINT)    0.0000 (X_U1.X_UDRV1_U847.x3.YINT)    0.0000     

(X_U1.X_UDRV2_U629.x3.YINT)    0.0000 (X_U1.X_UDRV2_U847.x3.YINT)    0.0000     

(X_U1.X_UCLK1_U716.x3.YINT1)    0.0000                                          

(X_U1.X_UCLK1_U716.x3.YINT2)    0.0000                                          

(X_U1.X_UCLK1_U716.x3.YINT3)    0.0000                                          

(X_U1.X_UCLK2_U718.x3.YINT1)    0.0000                                          

(X_U1.X_UCLK2_U718.x3.YINT2)    0.0000                                          

(X_U1.X_UCLK2_U718.x3.YINT3)    0.0000                   


  These voltages failed to converge:

    V(GND)                    =   112.61mV  \  -189.29uV
    V(VCC)                    =     3.941V  \     3.828V
    V(SW1)                    =     4.120V  \   138.94mV
    V(N09572)                 =     2.774V  \     4.887V
    V(N10018)                 =   112.59mV  \  -207.33uV
    V(N10062)                 =   800.00mV  \   781.90mV
    V(FB)                     =   312.72mV  \   199.92mV
    V(VOUT)                   =     4.120V  \     4.007V
    V(SW2)                    =     4.120V  \   -99.40mV
    V(N09620)                 =     4.120V  \     4.009V
    V(N09386)                 =     7.458V  \   138.93mV
    V(N09398)                 =     7.458V  \   138.94mV
    V(HB1)                    =     11.45V  \     7.467V
    V(VDDA)                   =     5.000V  \     4.887V
    V(COMP)                   =    90.44mV  \   -20.18mV
    V(HB2)                    =     11.66V  \     7.440V
    V(N10254)                 =   700.88mV  \   588.08mV
    V(N09404)                 =     7.554V  \   -99.40mV
    V(N09410)                 =     7.554V  \   -99.41mV
    V(N09590)                 =     2.774V  \     4.887V
    V(DITH)                   =   112.61mV  \  -189.29uV
    V(N09494)                 =     4.120V  \     4.005V
    V(VIN)                    =     34.32V  \     34.21V
    V(SS)                     =   240.91mV  \   128.11mV
    V(X_U1.VREF1)             =   240.91mV  \   125.21mV
    V(X_U1.U2_N68066)         =   494.33mV  \   480.79mV
    V(X_U1.U2_N67870)         =   748.99mV  \   728.48mV
    V(X_U1.U2_N67984)         =     4.756V  \     4.643V
    V(X_U1.PGOOD_EN2)         =     1.000V  \   977.37mV
    V(X_U1.U13_PG)            =     1.000V  \   977.37mV
    V(X_U1.VREF2)             =   240.91mV  \   125.21mV
    V(X_U1.U11_N75748)        =   494.33mV  \   480.79mV
    V(X_U1.U11_N75584)        =   748.99mV  \   728.48mV
    V(X_U1.U11_N75696)        =     4.756V  \     4.643V
    V(X_U1.UDRV2_N16778236)   =   383.65mV  \   273.03mV
    V(X_U1.UDRV2_CSASLOPE)    =   467.74mV  \   453.60mV
    V(X_U1.ISLOPE2)           =   160.80mV  \   157.16mV
    V(X_U1.U98_N16784765)     =   103.19KV  \   114.75KV
    V(X_U1.U98_RT_FREQ)       =   131.97KV  \   146.75KV
    V(X_U1.U98_N16804696)     =     1.000V  \   977.37mV
    V(X_U1.U98_N16777841)     =     1.247V  \     1.250V
    V(X_U1.U98_SYNC_FREQ)     =   100.00KV  \    97.74KV
    V(X_U1.U98_N16783053)     =   154.78KV  \   172.12KV
    V(X_U1.U98_N16807781)     =     1.000V  \   977.37mV
    V(X_U1.PGOOD_EN1)         =     1.000V  \   977.37mV
    V(X_U1.U10_PG)            =     1.000V  \   977.37mV
    V(X_U1.UEA2_COMP_INT)     =     1.984V  \     1.955V
    V(X_U1.L_BLNCK2)          =   977.37mV  \   955.26mV
    V(X_U1.U14_N16902652)     =   293.21mV  \   316.42mV
    V(X_U1.U14_ZTH)           =   200.00mV  \   195.48mV
    V(X_U1.INTERLEAVED)       =     1.000V  \   977.37mV
    V(X_U1.U99_N16774936)     =   800.00mV  \   781.90mV
    V(X_U1.U7_VCC)            =     3.917V  \     3.828V
    V(X_U1.U7_EN_OK2)         =     1.000V  \   977.37mV
    V(X_U1.U7_EN_OK1)         =     1.000V  \   977.37mV
    V(X_U1.U7_VCC_OK)         =     1.000V  \   977.37mV
    V(X_U1.L_BLNCK1)          =   977.37mV  \   955.26mV
    V(X_U1.U4_N16902652)      =   293.21mV  \   260.79mV
    V(X_U1.U4_ZTH)            =   200.00mV  \   195.48mV
    V(X_U1.ISLOPE1)           =    30.10mV  \    29.41mV
    V(X_U1.UCLK1_VC2)         =   368.84mV  \   369.77mV
    V(X_U1.U5_N107542)        =     4.756V  \     4.643V
    V(X_U1.UDRV1_N16778236)   =   383.65mV  \   273.03mV
    V(X_U1.UDRV1_CSASLOPE)    =   302.82mV  \   295.30mV
    V(X_U1.UCLK2_VC1)         =   423.76mV  \   424.83mV
    V(X_U1.X_U2_U630.YINT)    =   195.40mV  \   190.98mV
    V(X_U1.X_U2_U631.Yint)    =     1.000V  \   977.37mV
    V(X_U1.X_U2_U626.YINT)    =   312.72mV  \   195.39mV
    V(X_U1.U13_UVP)           =     1.000V  \   977.37mV
    V(X_U1.U13_OVP_N)         =     1.000V  \   977.37mV
    V(X_U1.X_U13_U1_U828.YINT) =     1.000V  \   977.37mV
    V(X_U1.X_U13_U614.INP2)   =    19.94mV  \    19.49mV
    V(X_U1.X_U13_U2_U620.YINT) =     1.000V  \   977.37mV
    V(X_U1.X_U13_U2_U608.YINT3) =     1.000V  \   977.37mV
    V(X_U1.X_U13_U2_U607.YINT1) =     1.000V  \   977.37mV
    V(X_U1.X_U13_U3_U607.YINT1) =     1.000V  \   977.37mV
    V(X_U1.X_U13_U618.YINT)   =     1.000V  \   977.37mV
    V(X_U1.X_U13_U613.INP2)   =    19.94mV  \    19.49mV
    V(X_U1.X_U11_U626.YINT)   =   112.61mV  \  -185.00uV
    V(X_U1.X_U11_U630.YINT)   =  -184.81uV  \  -180.63uV
    V(X_U1.X_U18_U145.YINT)   =     1.000V  \   977.37mV
    V(X_U1.X_U18_U7.YINT)     =     1.000V  \   977.37mV
    V(X_U1.X_U18_U27.YINT3)   =     1.000V  \   977.37mV
    V(X_U1.X_U18_U143.ch)     =     1.000V  \   977.37mV
    V(X_U1.X_U18_U8.YINT)     =     1.000V  \   977.37mV
    V(X_U1.X_U18_U23.YINT)    =     1.000V  \   977.37mV
    V(X_U1.X_U18_U29.YINT1)   =     1.000V  \   977.37mV
    V(X_U1.X_U18_U30.YINT1)   =     1.000V  \   977.37mV
    V(X_U1.X_U18_U2.YINT)     =     1.000V  \   977.37mV
    V(X_U1.X_U18_U9.YINT)     =     1.000V  \   977.37mV
    V(X_U1.X_U18_U24.YINT)    =     1.000V  \   977.37mV
    V(X_U1.X_U18_U6.YINT)     =     1.000V  \   977.37mV
    V(X_U1.X_UDRV2_U5.Yint)   =     1.000V  \   977.37mV
    V(X_U1.X_UDRV2_U848.INM1) =  -235.64mV  \  -122.56mV
    V(X_U1.X_UDRV2_U848.INP2) =   977.37uV  \   955.26uV
    V(X_U1.UDRV2_N16758148)   =     1.000V  \   977.37mV
    V(X_U1.X_UDRV2_U849.YINT) =     1.000V  \   977.37mV
    V(X_U1.X_UDRV2_U629.qbr)  =     1.000V  \   977.37mV
    V(X_U1.X_UDRV2_U841.YINT) =     1.000V  \   977.37mV
    V(X_U1.X_UDRV2_U828.YINT) =     1.000V  \   977.37mV
    V(X_U1.X_UDRV2_U835.YINT) =     1.000V  \   977.37mV
    V(X_U1.X_UDRV2_U826.YINT3) =     1.000V  \   977.37mV
    V(X_U1.X_UDRV2_U847.qbr)  =     1.000V  \   977.37mV
    V(X_U1.X_U98_U676.INM1)   =    -2.976V  \    -2.866V
    V(X_U1.X_U98_U676.INP2)   =     1.173V  \     1.146V
    V(X_U1.X_U98_U677.Yint)   =     1.000V  \   977.37mV
    V(X_U1.X_U98_U143.ch)     =     1.000V  \   977.37mV
    V(X_U1.X_U98_U678.Yint)   =     1.000V  \   977.37mV
    V(X_U1.U10_UVP)           =     1.000V  \   977.37mV
    V(X_U1.U10_OVP_N)         =     1.000V  \   977.37mV
    V(X_U1.X_U10_U1_U828.YINT) =     1.000V  \   977.37mV
    V(X_U1.X_U10_U614.INP2)   =    19.94mV  \    19.49mV
    V(X_U1.X_U10_U2_U620.YINT) =     1.000V  \   977.37mV
    V(X_U1.X_U10_U2_U608.YINT3) =     1.000V  \   977.37mV
    V(X_U1.X_U10_U2_U607.YINT1) =     1.000V  \   977.37mV
    V(X_U1.X_U10_U3_U607.YINT1) =     1.000V  \   977.37mV
    V(X_U1.X_U10_U618.YINT)   =     1.000V  \   977.37mV
    V(X_U1.X_U10_U613.INP2)   =    19.94mV  \    19.49mV
    V(X_U1.X_U14_U693.INM1)   =    -3.831V  \   288.21mV
    V(X_U1.X_U14_U687.YINT)   =     1.000V  \   977.37mV
    V(X_U1.X_U14_U657.YINT)   =     1.000V  \   977.37mV
    V(X_U1.X_U14_U653.YINT)   =     1.000V  \   977.37mV
    V(X_U1.X_U14_U650.YINT)   =     1.000V  \   977.37mV
    V(X_U1.X_U14_U652.YINT)   =     1.000V  \   977.37mV
    V(X_U1.X_U14_U651.YINT)   =     1.000V  \   977.37mV
    V(X_U1.X_U14_U685.YINT)   =     1.000V  \   977.37mV
    V(X_U1.X_U14_U655.YINT)   =     1.000V  \   977.37mV
    V(X_U1.X_U14_U648.YINT)   =     1.000V  \   977.37mV
    V(X_U1.X_U14_U613.YINT)   =     1.000V  \   977.37mV
    V(X_U1.X_U7_U626.YINT)    =     34.32V  \     33.43V
    V(X_U1.U7_VIN_OK)         =     1.000V  \   977.37mV
    V(X_U1.X_U7_U613.INM1)    =    -30.49V  \    -30.38V
    V(X_U1.X_U7_U613.INP2)    =    87.96mV  \    85.97mV
    V(X_U1.X_U7_U614.INM1)    =    -31.63V  \    -31.52V
    V(X_U1.X_U7_U614.INP2)    =     1.173V  \     1.146V
    V(X_U1.X_U7_U615.INM1)    =    -30.39V  \    -30.28V
    V(X_U1.X_U7_U615.INP2)    =    87.96mV  \    85.97mV
    V(X_U1.X_U7_U627.INM1)    =    -31.63V  \    -31.52V
    V(X_U1.X_U7_U627.INP2)    =     1.173V  \     1.146V
    V(X_U1.X_U7_U620.INM1)    =    80.80mV  \   191.05mV
    V(X_U1.X_U7_U620.INP2)    =   195.48mV  \   191.05mV
    V(X_U1.U7_VCCX_OK)        =     1.000V  \   977.37mV
    V(X_U1.X_U7_U621.YINT)    =     4.120V  \     3.917V
    V(X_U1.X_U4_U693.INM1)    =    -3.831V  \    55.26mV
    V(X_U1.X_U4_U687.YINT)    =     1.000V  \   977.37mV
    V(X_U1.X_U4_U657.YINT)    =     1.000V  \   977.37mV
    V(X_U1.X_U4_U653.YINT)    =     1.000V  \   977.37mV
    V(X_U1.X_U4_U650.YINT)    =     1.000V  \   977.37mV
    V(X_U1.X_U4_U652.YINT)    =     1.000V  \   977.37mV
    V(X_U1.X_U4_U651.YINT)    =     1.000V  \   977.37mV
    V(X_U1.X_U4_U685.YINT)    =     1.000V  \   977.37mV
    V(X_U1.X_U4_U655.YINT)    =     1.000V  \   977.37mV
    V(X_U1.X_U4_U648.YINT)    =     1.000V  \   977.37mV
    V(X_U1.X_U4_U613.YINT)    =     1.000V  \   977.37mV
    V(X_U1.X_UCLK1_U704.qbr)  =     1.000V  \   977.37mV
    V(X_U1.X_UCLK1_U716.qbr)  =     1.000V  \   977.37mV
    V(X_U1.X_UCLK1_U698.YINT) =     1.000V  \   977.37mV
    V(X_U1.X_UCLK1_U690.YINT) =     1.000V  \   977.37mV
    V(X_U1.X_UCLK1_U691.YINT) =     1.000V  \   977.37mV
    V(X_U1.X_UCLK1_U713.YINT) =     1.000V  \   977.37mV
    V(X_U1.X_UCLK1_U146.YINT) =     1.000V  \   977.37mV
    V(X_U1.X_UCLK1_U838.qbr)  =     1.000V  \   977.37mV
    V(X_U1.X_UCLK1_U836.YINT) =     1.000V  \   977.37mV
    V(X_U1.X_U5_U617.YINT)    =     1.000V  \   977.37mV
    V(X_U1.X_U5_U611.YINT1)   =     1.000V  \   977.37mV
    V(X_U1.X_U5_U610.YINT3)   =     1.000V  \   977.37mV
    V(X_U1.X_U5_U31.qbr)      =     1.000V  \   977.37mV
    V(X_U1.X_U5_U629.Yint)    =     1.000V  \   977.37mV
    V(X_U1.X_U5_U4_U607.YINT1) =     1.000V  \   977.37mV
    V(X_U1.X_U5_U619.Yint)    =     1.000V  \   977.37mV
    V(X_U1.X_U5_U3_U607.YINT1) =     1.000V  \   977.37mV
    V(X_U1.X_U5_U642.reset)   =     1.000V  \   977.37mV
    V(X_U1.X_U5_U30.qbr)      =     1.000V  \   977.37mV
    V(X_U1.X_U5_U614.YINT3)   =     1.000V  \   977.37mV
    V(X_U1.X_U5_U639.reset)   =     1.000V  \   977.37mV
    V(X_U1.X_U5_U607.YINT3)   =     1.000V  \   977.37mV
    V(X_U1.X_U5_U615.YINT)    =     1.000V  \   977.37mV
    V(X_U1.X_U5_U618.Yint)    =     1.000V  \   977.37mV
    V(X_U1.X_UDRV1_U5.Yint)   =     1.000V  \   977.37mV
    V(X_U1.X_UDRV1_U848.INM1) =   -48.81mV  \    64.28mV
    V(X_U1.X_UDRV1_U849.YINT) =     1.000V  \   977.37mV
    V(X_U1.X_UDRV1_U629.qbr)  =     1.000V  \   977.37mV
    V(X_U1.X_UDRV1_U841.YINT) =     1.000V  \   977.37mV
    V(X_U1.X_UDRV1_U828.YINT) =     1.000V  \   977.37mV
    V(X_U1.X_UDRV1_U835.YINT) =     1.000V  \   977.37mV
    V(X_U1.X_UDRV1_U826.YINT3) =     1.000V  \   977.37mV
    V(X_U1.X_UDRV1_U847.qbr)  =     1.000V  \   977.37mV
    V(X_U1.X_UCLK2_U690.YINT) =     1.000V  \   977.37mV
    V(X_U1.X_UCLK2_U691.YINT) =     1.000V  \   977.37mV
    V(X_U1.X_UCLK2_U714.YINT) =     1.000V  \   977.37mV
    V(X_U1.X_UCLK2_U699.YINT) =     1.000V  \   977.37mV
    V(X_U1.X_UCLK2_U695.YINT) =     1.000V  \   977.37mV
    V(X_U1.X_UCLK2_U716.qbr)  =     2.000V  \     1.955V
    V(X_U1.X_UCLK2_U146.YINT) =     1.000V  \   977.37mV
    V(X_U1.X_UCLK2_U718.qbr)  =     1.000V  \   977.37mV
    V(X_U1.X_UCLK2_U717.YINT) =     1.000V  \   977.37mV
    V(X_U1.X_U2_U634.x3.YINT) =     1.000V  \   977.37mV
    V(X_U1.X_U11_U634.x3.YINT) =     1.000V  \   977.37mV
    V(X_U1.X_U18_U144.x3.YINT) =     1.000V  \   977.37mV
    V(X_U1.X_U14_U690.x3.YINT) =     1.000V  \   977.37mV
    V(X_U1.X_U4_U690.x3.YINT) =     1.000V  \   977.37mV
    V(X_U1.X_U5_U641.x3.YINT) =     1.000V  \   977.37mV
    V(X_U1.X_U5_U640.x3.YINT) =     1.000V  \   977.37mV
    V(X_U1.X_UCLK2_U718.x1.YINT) =     1.000V  \   977.37mV
    V(X_U1.X_UCLK2_U838.x3.YINT) =     1.000V  \   977.37mV

  These supply currents failed to converge:

    I(X_U1.E_U2_E3)           =   -67.92pA  \  -180.72pA
    I(X_U1.E_U13_ABM6)        =  -157.00uA  \  -200.98nA
    I(X_U1.E_U13_ABM3)        =   -1.194uA  \  -288.60nA
    I(X_U1.E_U11_E3)          =    1.189pA  \    61.17fA
    I(X_U1.E_U10_ABM6)        =  -157.00uA  \  -200.98nA
    I(X_U1.E_U10_ABM3)        =   -1.194uA  \  -288.60nA
    I(X_U1.E_U14_E2)          =   343.29uA  \  -236.76uA
    I(X_U1.E_U97_ABM8)        =   -1.001nA  \  -978.35pA
    I(X_U1.E_U99_ABM1)        =   -4.910uA  \   -5.586uA
    I(X_U1.E_U7_ABM7)         =   -65.06KA  \    91.84mA
    I(X_U1.E_U7_ABM3)         =     48.56A  \   189.02mA
    I(X_U1.E_U4_E2)           =  -512.32uA  \   298.38uA
    I(X_U1.X_U2_U630.E_ABMGATE) =   -4.419mA  \    2.280uA
    I(X_U1.X_U2_U631.E_ABM)   =   -22.63mA  \  -200.00nA
    I(X_U1.X_U2_U626.E_ABMGATE) =  -117.32mA  \    2.439uA
    I(X_U1.X_U13_U1_U828.E_ABMGATE) =   -22.63mA  \  -409.77nA
    I(X_U1.X_U13_U614.EOUT)   =   -22.63mA  \   -1.000uA
    I(X_U1.X_U13_U2_U620.E_ABMGATE) =   -22.63mA  \  -200.00nA
    I(X_U1.X_U13_U2_U608.E_ABMGATE2) =   -22.63mA  \  -200.00nA
    I(X_U1.X_U13_U2_U607.E_ABMGATE1) =   -22.64mA  \   -13.00uA
    I(X_U1.X_U13_U3_U607.E_ABMGATE1) =   -22.64mA  \   -13.00uA
    I(X_U1.X_U13_U618.E_ABMGATE) =   -22.63mA  \  -200.00nA
    I(X_U1.X_U13_U613.EOUT)   =   -22.63mA  \   -1.000uA
    I(X_U1.X_U11_U626.E_ABMGATE) =  -112.80mA  \   194.57nA
    I(X_U1.X_U11_U630.E_ABMGATE) =    4.309uA  \   128.55nA
    I(X_U1.X_U18_U145.E_ABMGATE) =   -22.63mA  \  -200.00nA
    I(X_U1.X_U18_U7.E_ABMGATE) =   -22.63mA  \  -200.00nA
    I(X_U1.X_U18_U27.E_ABMGATE2) =   -22.63mA  \  -200.00nA
    I(X_U1.X_U18_U143.e_abm1) =  -452.80uA  \  -289.52nA
    I(X_U1.X_U18_U8.E_ABMGATE) =   -22.63mA  \  -200.00nA
    I(X_U1.X_U18_U23.E_ABMGATE) =   -22.63mA  \  -200.00nA
    I(X_U1.X_U18_U29.E_ABMGATE1) =   -22.63mA  \   -5.200uA
    I(X_U1.X_U18_U30.E_ABMGATE1) =   -22.63mA  \   -5.200uA
    I(X_U1.X_U18_U2.E_ABMGATE) =   -22.63mA  \  -200.00nA
    I(X_U1.X_U18_U9.E_ABMGATE) =   -22.63mA  \  -200.00nA
    I(X_U1.X_U18_U24.E_ABMGATE) =   -22.63mA  \  -200.00nA
    I(X_U1.X_U18_U6.E_ABMGATE) =   -22.63mA  \  -200.00nA
    I(X_U1.X_UDRV2_U5.E_ABM)  =   -22.63mA  \  -400.00nA
    I(X_U1.X_UDRV2_U848.EOUT) =   -22.63mA  \   -1.000uA
    I(X_U1.X_UDRV2_U849.E_ABMGATE) =   -22.63mA  \  -200.00nA
    I(X_U1.X_UDRV2_U629.eqb)  =   -22.63mA  \   -1.177uA
    I(X_U1.X_UDRV2_U841.E_ABMGATE) =   -22.63mA  \  -200.00nA
    I(X_U1.X_UDRV2_U828.E_ABMGATE) =   -22.63mA  \  -200.00nA
    I(X_U1.X_UDRV2_U835.E_ABMGATE) =   -22.63mA  \  -488.60nA
    I(X_U1.X_UDRV2_U826.E_ABMGATE2) =   -22.63mA  \  -200.00nA
    I(X_U1.X_UDRV2_U847.eqb)  =   -22.63mA  \  -200.00nA
    I(X_U1.X_U98_U676.EOUT)   =   -22.69mA  \   -41.00uA
    I(X_U1.X_U98_U677.E_ABM)  =   -22.63mA  \  -200.00nA
    I(X_U1.X_U98_U143.e_abm1) =  -283.11uA  \  -289.52nA
    I(X_U1.X_U98_U678.E_ABM)  =   -22.63mA  \  -200.00nA
    I(X_U1.X_U10_U1_U828.E_ABMGATE) =   -22.63mA  \  -409.77nA
    I(X_U1.X_U10_U614.EOUT)   =   -22.63mA  \   -1.000uA
    I(X_U1.X_U10_U2_U620.E_ABMGATE) =   -22.63mA  \  -200.00nA
    I(X_U1.X_U10_U2_U608.E_ABMGATE2) =   -22.63mA  \  -200.00nA
    I(X_U1.X_U10_U2_U607.E_ABMGATE1) =   -22.64mA  \   -13.00uA
    I(X_U1.X_U10_U3_U607.E_ABMGATE1) =   -22.64mA  \   -13.00uA
    I(X_U1.X_U10_U618.E_ABMGATE) =   -22.63mA  \  -200.00nA
    I(X_U1.X_U10_U613.EOUT)   =   -22.63mA  \   -1.000uA
    I(X_U1.X_U14_U687.E_ABMGATE) =   -22.63mA  \  -200.98nA
    I(X_U1.X_U14_U657.E_ABMGATE) =   -22.63mA  \  -200.00nA
    I(X_U1.X_U14_U653.E_ABMGATE) =   -22.63mA  \  -200.00nA
    I(X_U1.X_U14_U650.E_ABMGATE) =   -22.63mA  \  -200.00nA
    I(X_U1.X_U14_U652.E_ABMGATE) =   -22.63mA  \  -200.00nA
    I(X_U1.X_U14_U651.E_ABMGATE) =   -22.63mA  \  -200.00nA
    I(X_U1.X_U14_U685.E_ABMGATE) =   -22.63mA  \  -200.00nA
    I(X_U1.X_U14_U655.E_ABMGATE) =   -22.63mA  \  -200.00nA
    I(X_U1.X_U14_U648.E_ABMGATE) =   -22.63mA  \  -200.98nA
    I(X_U1.X_U14_U613.E_ABMGATE) =   -22.63mA  \  -200.00nA
    I(X_U1.X_U7_U626.E_ABMGATE) =  -886.79mA  \   -13.49uA
    I(X_U1.X_U7_U613.EOUT)    =   -22.63mA  \   -1.000uA
    I(X_U1.X_U7_U614.EOUT)    =   -23.01mA  \  -289.60uA
    I(X_U1.X_U7_U615.EOUT)    =   -22.63mA  \   -1.000uA
    I(X_U1.X_U7_U627.EOUT)    =   -23.01mA  \  -289.60uA
    I(X_U1.X_U7_U620.EOUT)    =   -22.63mA  \   -1.000uA
    I(X_U1.X_U7_U621.E_ABMGATE) =  -203.42mA  \    45.14uA
    I(X_U1.X_U4_U687.E_ABMGATE) =   -22.63mA  \  -200.98nA
    I(X_U1.X_U4_U657.E_ABMGATE) =   -22.63mA  \  -200.00nA
    I(X_U1.X_U4_U653.E_ABMGATE) =   -22.63mA  \  -200.00nA
    I(X_U1.X_U4_U650.E_ABMGATE) =   -22.63mA  \  -200.00nA
    I(X_U1.X_U4_U652.E_ABMGATE) =   -22.63mA  \  -200.00nA
    I(X_U1.X_U4_U651.E_ABMGATE) =   -22.63mA  \  -200.00nA
    I(X_U1.X_U4_U685.E_ABMGATE) =   -22.63mA  \  -200.00nA
    I(X_U1.X_U4_U655.E_ABMGATE) =   -22.63mA  \  -200.00nA
    I(X_U1.X_U4_U648.E_ABMGATE) =   -22.63mA  \  -200.98nA
    I(X_U1.X_U4_U613.E_ABMGATE) =   -22.63mA  \  -200.00nA
    I(X_U1.X_UCLK1_U704.eqb)  =   -22.63mA  \  -200.00nA
    I(X_U1.X_UCLK1_U716.eqb)  =   -22.63mA  \  -200.00nA
    I(X_U1.X_UCLK1_U698.E_ABMGATE) =   -22.63mA  \  -200.98nA
    I(X_U1.X_UCLK1_U690.E_ABMGATE) =   -22.63mA  \  -200.00nA
    I(X_U1.X_UCLK1_U691.E_ABMGATE) =   -22.63mA  \  -200.00nA
    I(X_U1.X_UCLK1_U713.E_ABMGATE) =   -22.63mA  \  -200.00nA
    I(X_U1.X_UCLK1_U146.E_ABMGATE) =   -22.63mA  \  -200.00nA
    I(X_U1.X_UCLK1_U838.eqb)  =   -22.63mA  \  -200.00nA
    I(X_U1.X_UCLK1_U836.E_ABMGATE) =   -22.63mA  \  -200.00nA
    I(X_U1.X_U5_U617.E_ABMGATE) =   -22.63mA  \  -200.98nA
    I(X_U1.X_U5_U611.E_ABMGATE1) =   -23.93mA  \   -1.300mA
    I(X_U1.X_U5_U610.E_ABMGATE2) =   -22.63mA  \  -200.00nA
    I(X_U1.X_U5_U31.eqb)      =   -22.63mA  \  -200.00nA
    I(X_U1.X_U5_U629.E_ABM)   =   -22.63mA  \  -200.00nA
    I(X_U1.X_U5_U4_U607.E_ABMGATE1) =   -22.63mA  \   -7.800uA
    I(X_U1.X_U5_U619.E_ABM)   =   -22.63mA  \  -200.00nA
    I(X_U1.X_U5_U3_U607.E_ABMGATE1) =   -22.63mA  \   -7.800uA
    I(X_U1.X_U5_U642.e_abm2)  =  -226.26mA  \  -288.54nA
    I(X_U1.X_U5_U30.eqb)      =   -22.63mA  \  -200.00nA
    I(X_U1.X_U5_U614.E_ABMGATE2) =   -22.63mA  \  -200.00nA
    I(X_U1.X_U5_U639.e_abm2)  =  -226.26mA  \  -288.54nA
    I(X_U1.X_U5_U607.E_ABMGATE2) =   -22.63mA  \  -200.00nA
    I(X_U1.X_U5_U615.E_ABMGATE) =   -22.63mA  \  -200.98nA
    I(X_U1.X_U5_U618.E_ABM)   =   -22.63mA  \  -200.00nA
    I(X_U1.X_UDRV1_U5.E_ABM)  =   -22.63mA  \  -400.00nA
    I(X_U1.X_UDRV1_U849.E_ABMGATE) =   -22.63mA  \  -200.00nA
    I(X_U1.X_UDRV1_U629.eqb)  =   -22.63mA  \   -1.177uA
    I(X_U1.X_UDRV1_U841.E_ABMGATE) =   -22.63mA  \  -200.00nA
    I(X_U1.X_UDRV1_U828.E_ABMGATE) =   -22.63mA  \  -200.00nA
    I(X_U1.X_UDRV1_U835.E_ABMGATE) =   -22.63mA  \  -488.60nA
    I(X_U1.X_UDRV1_U826.E_ABMGATE2) =   -22.63mA  \  -200.00nA
    I(X_U1.X_UDRV1_U847.eqb)  =   -22.63mA  \  -200.00nA
    I(X_U1.X_UCLK2_U690.E_ABMGATE) =   -22.63mA  \  -200.00nA
    I(X_U1.X_UCLK2_U691.E_ABMGATE) =   -22.63mA  \  -200.00nA
    I(X_U1.X_UCLK2_U714.E_ABMGATE) =   -22.63mA  \  -518.26nA
    I(X_U1.X_UCLK2_U699.E_ABMGATE) =   -22.63mA  \  -200.98nA
    I(X_U1.X_UCLK2_U695.E_ABMGATE) =   -22.63mA  \  -200.00nA
    I(X_U1.X_UCLK2_U716.eqb)  =   -45.25mA  \  -400.00nA
    I(X_U1.X_UCLK2_U146.E_ABMGATE) =   -22.63mA  \  -200.00nA
    I(X_U1.X_UCLK2_U718.eqb)  =   -22.63mA  \  -200.00nA
    I(X_U1.X_UCLK2_U717.E_ABMGATE) =   -22.63mA  \  -200.00nA
    I(X_U1.X_U2_U634.x3.E_ABMGATE) =   -22.63mA  \  -400.00nA
    I(X_U1.X_U11_U634.x3.E_ABMGATE) =   -22.63mA  \  -400.00nA
    I(X_U1.X_U18_U144.x3.E_ABMGATE) =   -22.63mA  \  -400.00nA
    I(X_U1.X_U14_U690.x3.E_ABMGATE) =   -22.63mA  \  -381.55nA
    I(X_U1.X_U4_U690.x3.E_ABMGATE) =   -22.63mA  \  -400.00nA
    I(X_U1.X_U5_U641.x3.E_ABMGATE) =   -22.63mA  \  -400.00nA
    I(X_U1.X_U5_U640.x3.E_ABMGATE) =   -22.63mA  \  -400.00nA
    I(X_U1.X_UCLK2_U718.x1.E_ABMGATE) =   -22.63mA  \  -400.00nA
    I(X_U1.X_UCLK2_U838.x3.E_ABMGATE) =   -22.63mA  \  -400.00nA
    I(L_L1)                   =    5.821uA  \   732.70mA
    I(L_L2)                   =    5.821uA  \    -1.024A
    I(V_V1)                   =    43.95mA  \   -80.54mA
    I(X_U1.V_U2_V4)           =   -67.92pA  \  -180.72pA
    I(X_U1.V_U11_V4)          =    1.189pA  \    61.17fA
    I(X_U1.V_U98_V13)         =   -10.00mA  \   -19.06uA
    I(X_U1.V_UEA2_VCLAMP_HIGH) =    28.61pA  \    97.71uA
    I(X_U1.V_U14_V10)         =   343.29uA  \  -236.76uA
    I(X_U1.V_U4_V10)          =  -512.32uA  \   298.38uA
    I(X_U1.V_UCLK1_V45)       =  -933.93nA  \   -1.039uA
    I(X_U1.V_UCLK2_V45)       =  -804.16nA  \  -918.81nA
    I(X_U1.V_UEA1_VCLAMP_LOW) =   104.20pA  \   -42.19uA
    I(X_U1.X_U2_U634.v1)      =    1.670pA  \     4.887A
    I(X_U1.X_UDRV2_U629.v1)   =   -1.096pA  \   -3.000pA
    I(X_U1.X_UDRV2_U629.v2)   =   -1.670pA  \    -4.887A
    I(X_U1.X_UDRV2_U847.v2)   =   -1.670pA  \    -4.887A
    I(X_U1.X_U14_U690.v1)     =    1.670pA  \     4.887A
    I(X_U1.X_U99_H1.VH_U99_H1) =    4.910uA  \    5.586uA
    I(X_U1.X_U4_U690.v1)      =    1.670pA  \     4.887A
    I(X_U1.X_UCLK1_U704.v2)   =   -2.466uA  \   -2.463uA
    I(X_U1.X_U5_U640.v2)      =    1.024pA  \   -1.178pA
    I(X_U1.X_UDRV1_U629.v2)   =   -1.670pA  \    -4.887A
    I(X_U1.X_UCLK2_U716.v2)   =   -1.670pA  \    -4.887A
    I(X_U1.X_UCLK2_U838.v2)   =    1.033pA  \   -1.143pA

  These devices failed to converge:
    X_U1.D_U13_U2_D1 X_U1.D_U98_D63 X_U1.D_U98_D62 X_U1.D_U10_U2_D1 
    X_U1.D_UEA2_D10 X_U1.D_UEA1_D9 X_U1.X_U2_U634.d_d10 X_U1.X_UDRV2_U629.d_d11 
    X_U1.X_UDRV2_U847.d_d11 X_U1.X_U14_U690.d_d10 X_U1.X_U4_U690.d_d10 
    X_U1.X_UDRV1_U629.d_d11 X_U1.X_UCLK2_U716.d_d11 X_U1.E_U97_ABM8 
    X_U1.X_U11_U631.E_ABM X_U1.X_U14_U693.EOUT X_U1.X_U4_U693.EOUT 
    X_U1.X_UDRV1_U5.E_ABM X_U1.X_UDRV1_U848.EOUT M_M2      M_M4      M_M1      
    M_M3      

**** Interrupt ****
**** Param: RELTOL = 0.001
**** Param: ABSTOL = 1e-12
**** Param: VNTOL = 1e-06
**** Param: GMIN = 1e-12
**** Param: TSTOP = 1e-06
**** Param: TMAX = 0
**** Param: ITL1 = 150
**** Param: ITL2 = 20
**** Param: ITL4 = 100
**** Param: AutoConverge = 1
**** Param: AutoConverge.ITL1 = 1000
**** Param: AutoConverge.ITL2 = 1000
**** Param: AutoConverge.ITL4 = 1000
**** Param: AutoConverge.RELTOL = 0.05
**** Param: AutoConverge.ABSTOL = 0.001
**** Param: AutoConverge.VNTOL = 0.001
**** Param: AutoConverge.PIVTOL = 1e-10
**** Param: ADVCONV = 1
**** Param: Current_Simulation = 0
**** Param: METHOD = 0
**** Param: TRTOL = 7
**** Param: STEPGMIN = 0
**** Param: GMINSTEPS = 0
**** Param: ITL6 = 0
**** Param: NOSTEPDEP = 0
**** Param: PTRANSTEP = 0
**** Param: GMINSRC = 0
**** Param: PSEUDOTRAN = 0
**** Param: NOSTEPSRC = 0
Convergence problem in transient bias point calculation


  Last node voltages tried were:

 NODE   VOLTAGE     NODE   VOLTAGE     NODE   VOLTAGE     NODE   VOLTAGE


(   FB) 791.0E-09  (   SS)    2.5598  (  GND) 11.87E-09  (  HB1)    2.0056      

(  HB2)    2.0056  (  SW1) 15.67E-06  (  SW2) 15.67E-06  (  VCC)    2.5000      

(  VIN)   17.5000  ( COMP)    1.0006  ( DITH) 11.87E-09  ( VDDA)    2.5000      

( VOUT) 15.62E-06  (N09386) 649.7E-06 (N09398) 651.7E-06 (N09404) 651.7E-06     

(N09410) 649.7E-06 (N09494) 15.67E-06 (N09572) 790.3E-06 (N09590) 790.3E-06     

(N09620) 15.67E-06 (N09862)    0.0000 (N09868)    0.0000 (N10018)     .0099     

(N10062)     .4000 (N10106)    0.0000 (N10254)    1.0006 (X_U1.DN)    0.0000    

(X_U1.UP)    0.0000                   (X_U1.CLK)    0.0000                      

(X_U1.CLK2)    0.0000                 (X_U1.FPWM)     .5000                     

(X_U1.OVP1)    0.0000                 (X_U1.OVP2)    0.0000                     

(X_U1.PH11)    0.0000                 (X_U1.PH12)    0.0000                     

(X_U1.PH21)     .5000                 (X_U1.PH22)     .5000                     

(X_U1.CLKD1)    0.0000                (X_U1.CLKD2)    0.0000                    

(X_U1.CLKFB)    0.0000                (X_U1.ILIM1)    0.0000                    

(X_U1.ILIM2)    0.0000                (X_U1.ISWH1)     .1500                    

(X_U1.ISWH2)     .1500                (X_U1.SDWN1)    0.0000                    

(X_U1.SDWN2)    0.0000                (X_U1.VFBI1) 936.8E-09                    

(X_U1.VFBI2) 936.8E-09                (X_U1.VREF1)     .3000                    

(X_U1.VREF2)     .3000                (X_U1.CLKREF)     .5000                   

(X_U1.N73189)    0.0000               (X_U1.N75844)    0.0000                   

(X_U1.NORMAL)    0.0000               (X_U1.U10_PG)     .5000                   

(X_U1.U13_PG)     .5000               (X_U1.U19_VC) 1.589E-06                   

(X_U1.U4_ZCD)    0.0000               (X_U1.U4_ZTH)     .1000                   

(X_U1.U7_VCC)    2.5000               (X_U1.HICCUP1)    0.0000                  

(X_U1.HICCUP2)    0.0000              (X_U1.ISLOPE1)    1.0006                  

(X_U1.ISLOPE2)    1.0006              (X_U1.N148020)     .5000                  

(X_U1.N187506)     .5000              (X_U1.PLL_DIS)     .5000                  

(X_U1.U10_UVP)     .5000              (X_U1.U13_UVP)     .5000                  

(X_U1.U14_ZCD)    0.0000              (X_U1.U14_ZTH)     .1000                  

(X_U1.U19_VCI) 7.906E-09              (X_U1.U4_LDRV)    0.0000                  

(X_U1.VINOK_B)    0.0000              (X_U1.CLK_SYNC)     .5000                 

(X_U1.H_BLNCK1)    0.0000             (X_U1.H_BLNCK2)    0.0000                 

(X_U1.L_BLNCK1)    0.0000             (X_U1.L_BLNCK2)    0.0000                 

(X_U1.U14_LDRV)    0.0000             (X_U1.U18_TONE)     .5000                 

(X_U1.U2_DISCH)    0.0000             (X_U1.U5_H_END)    0.0000                 

(X_U1.UCLK1_SR)     .5000             (X_U1.UCLK2_SR)     .5000                 

(X_U1.N16669093)     .5000            (X_U1.N16682465)     .5000                

(X_U1.N16783791)    1.0000            (X_U1.N16807997)     .5000                

(X_U1.N16811359)    0.0000            (X_U1.N16816902) 1.156E-06                

(X_U1.N16824422)     .5000            (X_U1.N16886382)     .5000                

(X_U1.N16916404)     .5000            (X_U1.PGOOD_EN1)     .5000                

(X_U1.PGOOD_EN2)     .5000            (X_U1.U10_OVP_N)     .5000                

(X_U1.U10_UVP_N)    0.0000            (X_U1.U11_DISCH)    0.0000                

(X_U1.U13_OVP_N)     .5000            (X_U1.U13_UVP_N)    0.0000                

(X_U1.U18_QB_DN)     .5000            (X_U1.U18_QB_UP)     .5000                

(X_U1.U18_QCLK1)    0.0000            (X_U1.U18_QCLK2)     .5000                

(X_U1.U2_N25555)    0.0000            (X_U1.U2_N67870) 2.839E-06                

(X_U1.U2_N67984)    2.3750            (X_U1.U2_N68066) 1.874E-06                

(X_U1.U2_N71046) 500.0E-09            (X_U1.U2_N72189)     .5000                

(X_U1.U2_N95734)     .5000            (X_U1.U4_N08357)    0.0000                

(X_U1.U4_N08485)     .5000            (X_U1.U4_N08737)     .5000                

(X_U1.U4_N09129)     .5000            (X_U1.U4_N09375)    0.0000                

(X_U1.U4_N09637)    0.0000            (X_U1.U4_N70409)     .5000                

(X_U1.U4_N85373)     .5000            (X_U1.U4_N86437)     .5000                

(X_U1.U5_COUNT1)    0.0000            (X_U1.U5_COUNT2)    0.0000                

(X_U1.U7_EN_OK1)     .5000            (X_U1.U7_EN_OK2)     .5000                

(X_U1.U7_VCC_OK)     .5000            (X_U1.U7_VIN_OK)     .5000                

(X_U1.UCLK1_VC1) 94.41E-12            (X_U1.UCLK1_VC2) 94.39E-12                

(X_U1.UCLK2_VC1)-1.062E-09            (X_U1.UCLK2_VC2)-1.062E-09                

(X_U1.VOUT1_3P3)    0.0000            (X_U1.U10_GLITCH)     .5000               

(X_U1.U10_TDELAY)     .5000           (X_U1.U10_TONMIN)     .5000               

(X_U1.U11_N17872)     .5000           (X_U1.U11_N37577)    0.0000               

(X_U1.U11_N75584) 2.839E-06           (X_U1.U11_N75696)    2.3750               

(X_U1.U11_N75748) 1.874E-06           (X_U1.U11_N75810) 500.0E-09               

(X_U1.U11_N75836)     .5000           (X_U1.U11_N96216)     .5000               

(X_U1.U13_GLITCH)     .5000           (X_U1.U13_TDELAY)     .5000               

(X_U1.U13_TONMIN)     .5000           (X_U1.U14_N08357)    0.0000               

(X_U1.U14_N08485)     .5000           (X_U1.U14_N08737)     .5000               

(X_U1.U14_N09129)     .5000           (X_U1.U14_N09375)    0.0000               

(X_U1.U14_N09637)    0.0000           (X_U1.U14_N70409)     .5000               

(X_U1.U14_N85373)     .5000           (X_U1.U14_N86437)     .5000               

(X_U1.U18_PLL_EN)    0.0000           (X_U1.U19_VDDBY2)    1.2500               

(X_U1.U4_N152364)     .5000           (X_U1.U5_N107511)    0.0000               

(X_U1.U5_N107542)    2.3750           (X_U1.U5_N107559)     .5000               

(X_U1.U5_N107566)    0.0000           (X_U1.U5_N133651)     .5000               

(X_U1.U5_N133661)    0.0000           (X_U1.U5_N146142)    0.0000               

(X_U1.U7_ENOK_B1)    0.0000           (X_U1.U7_ENOK_B2)    0.0000               

(X_U1.U7_VCCOK_B)    0.0000           (X_U1.U7_VCCX_OK)    0.0000               

(X_U1.UCLK1_VDC3)    1.5000           (X_U1.UCLK1_VREF)     .6000               

(X_U1.UCLK2_VDC3)    1.5000           (X_U1.UCLK2_VREF)     .6000               

(X_U1.ULTRA_LOW1)    0.0000           (X_U1.ULTRA_LOW2)    0.0000               

(X_U1.CLK_INT_DIS)    0.0000          (X_U1.INTERLEAVED)     .5000              

(X_U1.SSCOMPLETE1)     .4662          (X_U1.SSCOMPLETE2)     .4662              

(X_U1.TIME_PERIOD) 89.29E-09          (X_U1.U14_N152364)     .5000              

(X_U1.U18_CLK1_PE)     .5000          (X_U1.U18_CLK2_PE)    0.0000              

(X_U1.U18_N183829)    0.0000          (X_U1.U18_N183909)     .5000              

(X_U1.U18_N184201)     .5000          (X_U1.U18_N184319)     .5000              

(X_U1.U18_N184411)     .5000          (X_U1.U18_N184513)     .5000              

(X_U1.U18_N187036)   16.0000          (X_U1.U18_N187496)     .5000              

(X_U1.U18_N187548)    0.0000          (X_U1.U18_RESET_B)    0.0000              

(X_U1.U19_N163174) 158.1E-18          (X_U1.U4_LDRV_INT)    0.0000              

(X_U1.U5_I_PULSE1)    0.0000          (X_U1.U5_I_PULSE2)    0.0000              

(X_U1.U98_RT_FREQ) 50.00E+03          (X_U1.UCLK1_RAMP1)  -42.9710              

(X_U1.UCLK1_VREF2)    1.2500          (X_U1.UCLK2_RAMP1)  -42.9710              

(X_U1.UCLK2_VREF2)    1.2500          (X_U1.UDRV1_PH1_1)    0.0000              

(X_U1.UDRV1_PH2_1)     .5000          (X_U1.UDRV2_PH1_1)    0.0000              

(X_U1.UDRV2_PH2_1)     .5000          (X_U1.X_U4_U693.1)    0.0000              

(X_U1.X_U7_U613.1)     .5000          (X_U1.X_U7_U614.1)     .5000              

(X_U1.X_U7_U615.1)     .5000          (X_U1.X_U7_U620.1)    0.0000              

(X_U1.X_U7_U627.1)     .5000          (X_U1.U14_LDRV_INT)    0.0000             

(X_U1.U2_N16784744)    0.0000         (X_U1.U2_N16784762)     .0625             

(X_U1.U2_N16785529)     .5000         (X_U1.U2_N16785551) 468.4E-09             

(X_U1.U4_LDRV_INTB)     .5000         (X_U1.U4_N16790065)     .1500             

(X_U1.U4_N16837589)    0.0000         (X_U1.U4_N16837627)     .5000             

(X_U1.U4_N16877418)     .5000         (X_U1.U4_N16902652)     .1500             

(X_U1.U4_N16914282) 500.0E-09         (X_U1.U4_N16922955)     .2500             

(X_U1.U4_N16923004)     .2500         (X_U1.U5_HICCUP1_N)     .5000             

(X_U1.U5_HICCUP2_N)     .5000         (X_U1.U5_N16630382)    0.0000             

(X_U1.U5_N16648145)    0.0000         (X_U1.U5_N16652648)    0.0000             

(X_U1.U5_N16652652)    0.0000         (X_U1.U5_N16652662)  256.0000             

(X_U1.U5_N16652718)    0.0000         (X_U1.U5_N16652752)     .5000             

(X_U1.U5_N16652904)    0.0000         (X_U1.U5_N16661334)    0.0000             

(X_U1.U5_N16662055) 25.00E-15         (X_U1.U5_N16662059)    2.5000             

(X_U1.U5_N16664681)    0.0000         (X_U1.U5_N16665826)    2.0000             

(X_U1.U5_N16679698)    0.0000         (X_U1.U5_N16682119) 25.00E-15             

(X_U1.U5_N16682177)    0.0000         (X_U1.U5_N16682213)    0.0000             

(X_U1.U5_N16682227)    2.5000         (X_U1.U5_N16682325)    0.0000             

(X_U1.U5_N16682357)    2.0000         (X_U1.U5_N16683669)    0.0000             

(X_U1.U5_N16777867)    0.0000         (X_U1.U5_N16777884)  256.0000             

(X_U1.U5_N16777933)    0.0000         (X_U1.U5_N16777952)    0.0000             

(X_U1.U5_N16778004)     .6000         (X_U1.U5_N16778062)    0.0000             

(X_U1.U5_N16864724)     .5000         (X_U1.U5_U3_N04955)     .5000             

(X_U1.U5_U4_N04955)     .5000         (X_U1.U7_N16734802)     .0450             

(X_U1.U7_N16734846)    1.6000         (X_U1.U7_N16735008)     .6000             

(X_U1.U7_N16735086)    1.0000         (X_U1.U7_N16735276)     .0450             

(X_U1.U7_N16735320)    1.6500         (X_U1.U7_N16735430)    2.1500             

(X_U1.U7_N16735502)     .1000         (X_U1.U7_N16735566)    8.7500             

(X_U1.U7_N16747479)     .6000         (X_U1.U7_N16747493)    1.0000             

(X_U1.U7_N16772254)    8.7500         (X_U1.U7_N16781951)     .5000             

(X_U1.U7_N16784507)     .5000         (X_U1.UCLK1_ENSYNC)    0.0000             

(X_U1.X_U10_U613.1)     .5000         (X_U1.X_U10_U614.1)     .5000             

(X_U1.X_U13_U613.1)     .5000         (X_U1.X_U13_U614.1)     .5000             

(X_U1.X_U14_U693.1)    0.0000         (X_U1.X_U2_U3.YINT)    0.0000             

(X_U1.X_U2_U5.YINT)    0.0000         (X_U1.X_U2_U6.YINT)    0.0000             

(X_U1.X_U5_U30.my5)     .5000         (X_U1.X_U5_U30.qbr)     .5000             

(X_U1.X_U5_U30.qqq) 501.0E-18         (X_U1.X_U5_U31.my5)     .5000             

(X_U1.X_U5_U31.qbr)     .5000         (X_U1.X_U5_U31.qqq) 501.0E-18             

(X_U1.X_U5_U639.ch)    0.0000         (X_U1.X_U5_U642.ch)    0.0000             

(X_U1.X_U98_U676.1)     .5000         (X_U1.U10_N16625533)     .0102            

(X_U1.U10_N16626981)     .0102        (X_U1.U10_N16627165)     .3300            

(X_U1.U10_N16787180)     .2760        (X_U1.U10_N16799779)    0.0000            

(X_U1.U10_N16803363)    0.0000        (X_U1.U10_N16805765)     .5000            

(X_U1.U10_U1_N02680)     .5000        (X_U1.U10_U2_N00140)     .5000            

(X_U1.U10_U2_N00220)    0.0000        (X_U1.U10_U2_N00780)     .5000            

(X_U1.U10_U2_N02470)     .5000        (X_U1.U10_U2_N03610)    0.0000            

(X_U1.U10_U3_N04955)    0.0000        (X_U1.U11_CHOOSE3P3)    0.0000            

(X_U1.U11_N16784744)    0.0000        (X_U1.U11_N16784762)     .0625            

(X_U1.U11_N16785549) 468.4E-09        (X_U1.U13_N16625533)     .0102            

(X_U1.U13_N16626981)     .0102        (X_U1.U13_N16627165)     .3300            

(X_U1.U13_N16787180)     .2760        (X_U1.U13_N16799779)    0.0000            

(X_U1.U13_N16803363)    0.0000        (X_U1.U13_N16805765)     .5000            

(X_U1.U13_U1_N02680)     .5000        (X_U1.U13_U2_N00140)     .5000            

(X_U1.U13_U2_N00220)    0.0000        (X_U1.U13_U2_N00780)     .5000            

(X_U1.U13_U2_N02470)     .5000        (X_U1.U13_U2_N03610)    0.0000            

(X_U1.U13_U3_N04955)    0.0000        (X_U1.U14_LDRV_INTB)     .5000            

(X_U1.U14_N16790065)     .1500        (X_U1.U14_N16837589)    0.0000            

(X_U1.U14_N16837627)     .5000        (X_U1.U14_N16877418)     .5000            

(X_U1.U14_N16902652)     .1500        (X_U1.U14_N16914282) 500.0E-09            

(X_U1.U14_N16922955)     .2500        (X_U1.U14_N16923004)     .2500            

(X_U1.U18_DISCHARGE)    0.0000        (X_U1.U18_PLL_COUNT)   15.9300            

(X_U1.U2_ADJ_DETECT)     .5000        (X_U1.U2_CHOOSE_ADJ) 395.5E-09            

(X_U1.U97_N16773228)    8.0000        (X_U1.U97_N16779114)    8.0000            

(X_U1.U97_N16785670)    0.0000        (X_U1.U97_N16786708)    0.0000            

(X_U1.U97_N16788036)    0.0000        (X_U1.U97_ULTRA_LOW)    0.0000            

(X_U1.U98_N16769147)    1.0000        (X_U1.U98_N16769333)     .6000            

(X_U1.U98_N16776010) 6.002E-15        (X_U1.U98_N16776592)     .6000            

(X_U1.U98_N16777841) 476.1E-30        (X_U1.U98_N16783053) 30.00E+03            

(X_U1.U98_N16784765) 20.00E+03        (X_U1.U98_N16785649)    0.0000            

(X_U1.U98_N16785854)     .5000        (X_U1.U98_N16804679)     .5000            

(X_U1.U98_N16804691)     .0100        (X_U1.U98_N16804696)     .5000            

(X_U1.U98_N16807781)     .5000        (X_U1.U98_SYNC_FREQ) 1.500E+06            

(X_U1.U99_N16774936)     .4000        (X_U1.UCLK1_CLK_INT)    0.0000            

(X_U1.UCLK1_FAKEPWM)    0.0000        (X_U1.UCLK1_N105129)    0.0000            

(X_U1.UCLK1_N105603)     .5000        (X_U1.UCLK1_N142689)     .5000            

(X_U1.UCLK1_N142694)    0.0000        (X_U1.UCLK1_N143410)    0.0000            

(X_U1.UCLK1_N148013)     .5000        (X_U1.UCLK1_TIMEBY4)    0.0000            

(X_U1.UCLK2_CLK_INT)    0.0000        (X_U1.UCLK2_FAKEPWM)    0.0000            

(X_U1.UCLK2_N105129)    0.0000        (X_U1.UCLK2_N105603)     .5000            

(X_U1.UCLK2_N142689)     .5000        (X_U1.UCLK2_N142694)    0.0000            

(X_U1.UCLK2_TIMEBY4)    0.0000        (X_U1.UDRV1_PREBIAS)     .5000            

(X_U1.UDRV2_PREBIAS)     .5000        (X_U1.UEA2_COMP_INT)    1.0006            

(X_U1.X_U11_U3.YINT)    0.0000        (X_U1.X_U11_U5.YINT)    0.0000            

(X_U1.X_U11_U6.YINT)    0.0000        (X_U1.X_U18_U1.YINT)    0.0000            

(X_U1.X_U18_U143.ch)    0.0000        (X_U1.X_U18_U2.YINT)     .5000            

(X_U1.X_U18_U3.YINT)    0.0000        (X_U1.X_U18_U4.YINT)     .5000            

(X_U1.X_U18_U5.YINT)     .5000        (X_U1.X_U18_U6.YINT)    0.0000            

(X_U1.X_U18_U7.YINT)     .5000        (X_U1.X_U18_U8.YINT)     .5000            

(X_U1.X_U18_U9.YINT)     .5000        (X_U1.X_U2_U634.my5)     .5000            

(X_U1.X_U2_U634.qbr)     .5000        (X_U1.X_U2_U634.qqq)     .0025            

(X_U1.X_U4_U690.my5)     .5000        (X_U1.X_U4_U690.qbr)     .5000            

(X_U1.X_U4_U690.qqq)     .0025        (X_U1.X_U5_U30.qint) 1.002E-15            

(X_U1.X_U5_U31.qint) 1.002E-15        (X_U1.X_U5_U640.my5)     .5000            

(X_U1.X_U5_U640.qbr)     .5000        (X_U1.X_U5_U640.qqq) 501.0E-18            

(X_U1.X_U5_U641.my5)     .5000        (X_U1.X_U5_U641.qbr)     .5000            

(X_U1.X_U5_U641.qqq) 501.0E-18        (X_U1.X_U97_U1.Yint)    0.0000            

(X_U1.X_U97_U2.Yint)    0.0000        (X_U1.X_U97_U4.YINT)    0.0000            

(X_U1.X_U97_U5.YINT)    0.0000        (X_U1.X_U97_U6.YINT)    0.0000            

(X_U1.X_U97_U7.YINT)    0.0000        (X_U1.X_U97_U8.YINT)    0.0000            

(X_U1.X_U98_U143.ch)     .5000        (X_U1.U11_ADJ_DETECT)    0.0000           

(X_U1.U11_CHOOSE_ADJ) 5.933E-09       (X_U1.U4_L_BLNCK_DCM)     .5000           

(X_U1.UCLK1_SLOPE_CH)    0.0000       (X_U1.UCLK2_SLOPE_CH)    0.0000           

(X_U1.UDRV1_CSASLOPE)     .5753       (X_U1.UDRV2_CSASLOPE)     .5753           

(X_U1.UEA1_N16743331)    1.0000       (X_U1.UEA1_N16743581)    0.0000           

(X_U1.UEA1_N16743799)    -.0100       (X_U1.UEA2_N16743331)    1.0000           

(X_U1.UEA2_N16743581)    0.0000       (X_U1.UEA2_N16743799)    -.0100           

(X_U1.X_U11_U634.my5)     .5000       (X_U1.X_U11_U634.qbr)     .5000           

(X_U1.X_U11_U634.qqq) 501.0E-18       (X_U1.X_U14_U690.my5)     .5000           

(X_U1.X_U14_U690.qbr)     .5000       (X_U1.X_U14_U690.qqq)     .0025           

(X_U1.X_U18_U144.my5)     .5000       (X_U1.X_U18_U144.qbr)     .5000           

(X_U1.X_U18_U144.qqq) 500.4E-18       (X_U1.X_U18_U22.YINT)    0.0000           

(X_U1.X_U18_U23.YINT)     .5000       (X_U1.X_U18_U24.YINT)     .5000           

(X_U1.X_U18_U25.YINT)     .5000       (X_U1.X_U18_U28.YINT)     .5000           

[...]

(X_U1.X_U5_U612.Yint)    0.0000       (X_U1.X_U5_U613.YINT)    0.0000           

(X_U1.X_U5_U615.YINT)    0.0000       (X_U1.X_U5_U616.Yint)    0.0000           

(X_U1.X_U5_U617.YINT)    0.0000       (X_U1.X_U5_U618.Yint)    0.0000           

(X_U1.X_U5_U619.Yint)    0.0000       (X_U1.X_U5_U629.Yint)     .5507           

(X_U1.X_U5_U630.YINT)    0.0000       (X_U1.X_U5_U631.YINT)    0.0000           

(X_U1.X_U5_U632.YINT)    0.0000       (X_U1.X_U5_U633.YINT)    0.0000           

(X_U1.X_U5_U634.YINT)    0.0000       (X_U1.X_U5_U637.YINT)    0.0000           

(X_U1.X_U5_U638.YINT)    0.0000       (X_U1.X_U5_U639.meas)    0.0000           

(X_U1.X_U5_U640.qint) 1.103E-15       (X_U1.X_U5_U641.qint) 1.103E-15           

(X_U1.X_U5_U642.meas)    0.0000       (X_U1.X_U7_U613.INM1)   -9.6433           

(X_U1.X_U7_U613.INP1)    0.0000       (X_U1.X_U7_U613.INP2)     .0273           

(X_U1.X_U7_U614.INM1)  -10.0070       (X_U1.X_U7_U614.INP1)    0.0000           

(X_U1.X_U7_U614.INP2)     .3639       (X_U1.X_U7_U615.INM1)   -9.6130           

(X_U1.X_U7_U615.INP1)    0.0000       (X_U1.X_U7_U615.INP2)     .0273           

(X_U1.X_U7_U616.YINT)    0.0000       (X_U1.X_U7_U618.YINT)    0.0000           

(X_U1.X_U7_U620.INM1)    1.3040       (X_U1.X_U7_U620.INP1)    0.0000           

(X_U1.X_U7_U620.INP2)    0.0000       (X_U1.X_U7_U621.YINT)   10.6140           

(X_U1.X_U7_U624.YINT)    0.0000       (X_U1.X_U7_U626.YINT)   10.6140           

(X_U1.X_U7_U627.INM1)  -10.0070       (X_U1.X_U7_U627.INP1)    0.0000           

(X_U1.X_U7_U627.INP2)     .3639       (X_U1.X_U7_U629.YINT)    0.0000           

(X_U1.X_U7_U630.YINT)    0.0000       (X_U1.X_U7_U631.YINT)    0.0000           

(X_U1.X_UDRV1_U848.1)     .5507       (X_U1.X_UDRV2_U848.1)     .5507           

(X_U1.X_UEA1_U1.YINT)    0.0000       (X_U1.X_UEA2_U1.YINT)    0.0000           

(X_U1.U14_L_BLNCK_DCM)     .5507      (X_U1.U4_L_BLNCK_FPWM)    0.0000          

(X_U1.U97_16PWM_RAMP1) 75.73E-15      (X_U1.U97_16PWM_RAMP2) 75.73E-15          

(X_U1.UCLK1_CLKEXTEND)    0.0000      (X_U1.UCLK1_DISCHARGE)    0.0000          

(X_U1.UCLK1_N16748920)    1.1014      (X_U1.UCLK1_N16748938)    0.0000          

(X_U1.UCLK1_N16750120)    0.0000      (X_U1.UCLK1_N16802829)    0.0000          

(X_U1.UCLK1_N16910733)    0.0000      (X_U1.UCLK1_N16913784)    0.0000          

(X_U1.UCLK1_N16941463)    0.0000      (X_U1.UCLK1_N16941559)     .5507          

(X_U1.UCLK1_N16941562)     .5507      (X_U1.UCLK2_CLKEXTEND)    0.0000          

(X_U1.UCLK2_DISCHARGE)    0.0000      (X_U1.UCLK2_N16748920)    1.1014          

(X_U1.UCLK2_N16748938)    0.0000      (X_U1.UCLK2_N16750120)    0.0000          

(X_U1.UCLK2_N16778810)     .3304      (X_U1.UCLK2_N16780211)    0.0000          

(X_U1.UCLK2_N16780801)     .3304      (X_U1.UCLK2_N16795843)    0.0000          

(X_U1.UCLK2_N16796127)     .5507      (X_U1.UCLK2_N16824360)    0.0000          

(X_U1.UCLK2_N16824391)    0.0000      (X_U1.UCLK2_N16824411)    0.0000          

(X_U1.UCLK2_N16833602)    0.0000      (X_U1.UCLK2_N16833698)     .5507          

(X_U1.UCLK2_N16833701)     .5507      (X_U1.UDRV1_N16757820)    0.0000          

(X_U1.UDRV1_N16757826)    0.0000      (X_U1.UDRV1_N16757852)    0.0000          

(X_U1.UDRV1_N16758148)     .5507      (X_U1.UDRV1_N16761308)    0.0000          

(X_U1.UDRV1_N16761314)    0.0000      (X_U1.UDRV1_N16761336)     .5507          

(X_U1.UDRV1_N16762313)    0.0000      (X_U1.UDRV1_N16762321)     .5507          

(X_U1.UDRV1_N16764046)     .5507      (X_U1.UDRV1_N16778236)    1.2672          

(X_U1.UDRV1_N16781726)     .6476      (X_U1.UDRV1_N16805723) 550.7E-06          

(X_U1.UDRV1_N16812981)    0.0000      (X_U1.UDRV2_N16757820)    0.0000          

(X_U1.UDRV2_N16757826)    0.0000      (X_U1.UDRV2_N16757852)    0.0000          

(X_U1.UDRV2_N16758148)     .5507      (X_U1.UDRV2_N16761308)    0.0000          

(X_U1.UDRV2_N16761314)    0.0000      (X_U1.UDRV2_N16761336)     .5507          

(X_U1.UDRV2_N16762313)    0.0000      (X_U1.UDRV2_N16762321)     .5507          

(X_U1.UDRV2_N16764046)     .5507      (X_U1.UDRV2_N16778236)    1.2672          

(X_U1.UDRV2_N16781726)     .6476      (X_U1.UDRV2_N16805723) 550.7E-06          

(X_U1.UDRV2_N16812981)    0.0000      (X_U1.X_U10_U613.INM1)    -.1674          

(X_U1.X_U10_U613.INP1)    0.0000      (X_U1.X_U10_U613.INP2)     .0062          

(X_U1.X_U10_U614.INM1)    -.2001      (X_U1.X_U10_U614.INP1)    0.0000          

(X_U1.X_U10_U614.INP2)     .0062      (X_U1.X_U10_U616.YINT)    0.0000          

(X_U1.X_U10_U617.YINT)    0.0000      (X_U1.X_U10_U618.YINT)     .5507          

(X_U1.X_U11_U626.YINT) 7.249E-09      (X_U1.X_U11_U627.Yint)    0.0000          

(X_U1.X_U11_U630.YINT) 1.139E-06      (X_U1.X_U11_U631.Yint)    0.0000          

(X_U1.X_U11_U633.Yint)     .5507      (X_U1.X_U11_U634.qint) 1.103E-15          

(X_U1.X_U13_U613.INM1)    -.1674      (X_U1.X_U13_U613.INP1)    0.0000          

(X_U1.X_U13_U613.INP2)     .0062      (X_U1.X_U13_U614.INM1)    -.2001          

(X_U1.X_U13_U614.INP1)    0.0000      (X_U1.X_U13_U614.INP2)     .0062          

(X_U1.X_U13_U616.YINT)    0.0000      (X_U1.X_U13_U617.YINT)    0.0000          

(X_U1.X_U13_U618.YINT)     .5507      (X_U1.X_U14_U612.YINT)    0.0000          

(X_U1.X_U14_U613.YINT)    0.0000      (X_U1.X_U14_U648.YINT)     .5507          

(X_U1.X_U14_U650.YINT)     .5507      (X_U1.X_U14_U651.YINT)     .5507          

(X_U1.X_U14_U652.YINT)     .5507      (X_U1.X_U14_U653.YINT)     .5507          

(X_U1.X_U14_U655.YINT)     .5507      (X_U1.X_U14_U657.YINT)     .5507          

(X_U1.X_U14_U685.YINT)     .5507      (X_U1.X_U14_U687.YINT)    0.0000          

(X_U1.X_U14_U688.YINT)     .5507      (X_U1.X_U14_U690.qint)     .0055          

(X_U1.X_U14_U691.YINT)    0.0000      (X_U1.X_U14_U692.YINT)    0.0000          

(X_U1.X_U14_U693.INM1)     .0606      (X_U1.X_U14_U693.INP1)    0.0000          

(X_U1.X_U14_U693.INP2)    0.0000      (X_U1.X_U18_U143.meas)    0.0000          

(X_U1.X_U18_U144.qint) 1.103E-15      (X_U1.X_U18_U145.YINT)    0.0000          

(X_U1.X_U18_U27.YINT1)     .5507      (X_U1.X_U18_U27.YINT2)     .5507          

(X_U1.X_U18_U27.YINT3)    0.0000      (X_U1.X_U18_U29.YINT1)     .5507          

(X_U1.X_U18_U29.YINT2)     .5507      (X_U1.X_U18_U29.YINT3)    0.0000          

(X_U1.X_U18_U30.YINT1)     .5507      (X_U1.X_U18_U30.YINT2)     .5507          

(X_U1.X_U18_U30.YINT3)    0.0000      (X_U1.X_U2_U634.myvss)    0.0000          

(X_U1.X_U2_U634.qqqd1)    0.0000      (X_U1.X_U4_U690.myvss)    0.0000          

(X_U1.X_U4_U690.qqqd1)    0.0000      (X_U1.X_U5_U607.YINT1)    0.0000          

(X_U1.X_U5_U607.YINT2)    0.0000      (X_U1.X_U5_U607.YINT3)     .5507          

(X_U1.X_U5_U610.YINT1)    0.0000      (X_U1.X_U5_U610.YINT2)    0.0000          

(X_U1.X_U5_U610.YINT3)     .5507      (X_U1.X_U5_U611.YINT1)     .5507          

(X_U1.X_U5_U611.YINT2)     .5507      (X_U1.X_U5_U611.YINT3)    0.0000          

(X_U1.X_U5_U614.YINT1)    0.0000      (X_U1.X_U5_U614.YINT2)    0.0000          

(X_U1.X_U5_U614.YINT3)     .5507      (X_U1.X_U5_U639.reset)     .5507          

(X_U1.X_U5_U640.myvss)    0.0000      (X_U1.X_U5_U640.qqqd1)    0.0000          

(X_U1.X_U5_U641.myvss)    0.0000      (X_U1.X_U5_U641.qqqd1)    0.0000          

(X_U1.X_U5_U642.reset)     .5507      (X_U1.X_U98_U143.meas)     .5507          

(X_U1.X_U98_U676.INM1)    -.9097      (X_U1.X_U98_U676.INP1)    0.0000          

(X_U1.X_U98_U676.INP2)     .3639      (X_U1.X_U98_U677.Yint)     .5507          

(X_U1.X_U98_U678.Yint)    0.0000      (X_U1.X_U98_U679.Yint)     .5507          

(X_U1.X_U98_U680.YINT)    0.0000      (X_U1.X_UDRV1_U5.Yint)    0.0000          

(X_U1.X_UDRV1_U6.Yint)    0.0000      (X_U1.X_UDRV2_U5.Yint)    0.0000          

(X_U1.X_UDRV2_U6.Yint)    0.0000      (X_U1.U14_L_BLNCK_FPWM)    0.0000         

(X_U1.U97_16PWM_COUNT1)    0.0000     (X_U1.U97_16PWM_COUNT2)    0.0000         

(X_U1.UCLK1_DISCHARGEB)     .5507     (X_U1.UCLK2_DISCHARGEB)     .5507         

(X_U1.UCLK2_SYNCCLKOUT)     .5507     (X_U1.X_U11_U634.myvss)    0.0000         

(X_U1.X_U11_U634.qqqd1)    0.0000     (X_U1.X_U14_U690.myvss)    0.0000         

(X_U1.X_U14_U690.qqqd1)    0.0000     (X_U1.X_U18_U143.reset)     .5507         

(X_U1.X_U18_U144.myvss)    0.0000     (X_U1.X_U18_U144.qqqd1)    0.0000         

(X_U1.X_U5_U30.x3.YINT)    0.0000     (X_U1.X_U5_U31.x3.YINT)    0.0000         

(X_U1.X_U5_U639.reset2)     .5507     (X_U1.X_U5_U642.reset2)     .5507         

(X_U1.X_U98_U143.reset)    0.0000     (X_U1.X_UCLK1_U704.my5)     .5507         

(X_U1.X_UCLK1_U704.qbr)     .5507     (X_U1.X_UCLK1_U704.qqq)    -.0030         

(X_U1.X_UCLK1_U716.my5)    2.7534     (X_U1.X_UCLK1_U716.qbr)     .5507         

(X_U1.X_UCLK1_U716.qqq) 3.034E-15     (X_U1.X_UCLK1_U838.my5)     .5507         

(X_U1.X_UCLK1_U838.qbr)     .5507     (X_U1.X_UCLK1_U838.qqq) 607.6E-18         

(X_U1.X_UCLK2_U716.my5)    1.1014     (X_U1.X_UCLK2_U716.qbr)    1.1014         

(X_U1.X_UCLK2_U716.qqq)    -.0030     (X_U1.X_UCLK2_U718.my5)    2.7534         

(X_U1.X_UCLK2_U718.qbr)     .5507     (X_U1.X_UCLK2_U718.qqq) 3.034E-15         

(X_U1.X_UCLK2_U838.my5)     .5507     (X_U1.X_UCLK2_U838.qbr)     .5507         

(X_U1.X_UCLK2_U838.qqq) 607.6E-18     (X_U1.X_UDRV1_U629.my5)     .5507         

(X_U1.X_UDRV1_U629.qbr)     .5507     (X_U1.X_UDRV1_U629.qqq) 607.6E-18         

(X_U1.X_UDRV1_U847.my5)     .5507     (X_U1.X_UDRV1_U847.qbr)     .5507         

(X_U1.X_UDRV1_U847.qqq)    -.0030     (X_U1.X_UDRV2_U629.my5)     .5507         

(X_U1.X_UDRV2_U629.qbr)     .5507     (X_U1.X_UDRV2_U629.qqq) 607.6E-18         

(X_U1.X_UDRV2_U847.my5)     .5507     (X_U1.X_UDRV2_U847.qbr)     .5507         

(X_U1.X_UDRV2_U847.qqq)    -.0030     (X_U1.U5_COUNTER1_RESET)    0.0000        

(X_U1.U5_COUNTER2_RESET)    0.0000    (X_U1.X_U18_U143.reset2)     .5507        

(X_U1.X_U2_U634.x3.YINT)    0.0000    (X_U1.X_U4_U690.x3.YINT)    0.0000        

(X_U1.X_U5_U3_U618.YINT)    0.0000    (X_U1.X_U5_U4_U618.YINT)    0.0000        

(X_U1.X_U5_U640.x3.YINT)    0.0000    (X_U1.X_U5_U641.x3.YINT)    0.0000        

(X_U1.X_U98_U143.reset2)    0.0000    (X_U1.X_UCLK1_U131.Yint)    0.0000        

(X_U1.X_UCLK1_U145.YINT)    0.0000    (X_U1.X_UCLK1_U146.YINT)     .5507        

(X_U1.X_UCLK1_U678.Yint)    0.0000    (X_U1.X_UCLK1_U679.Yint)    0.0000        

(X_U1.X_UCLK1_U685.YINT)    0.0000    (X_U1.X_UCLK1_U690.YINT)     .5507        

(X_U1.X_UCLK1_U691.YINT)     .5507    (X_U1.X_UCLK1_U695.YINT)    0.0000        

(X_U1.X_UCLK1_U698.YINT)     .5507    (X_U1.X_UCLK1_U699.YINT)    0.0000        

(X_U1.X_UCLK1_U703.YINT)     .5507    (X_U1.X_UCLK1_U704.qint)    -.0055        

(X_U1.X_UCLK1_U705.YINT)    0.0000    (X_U1.X_UCLK1_U706.YINT)    0.0000        

(X_U1.X_UCLK1_U708.YINT)    0.0000    (X_U1.X_UCLK1_U713.YINT)     .5507        

(X_U1.X_UCLK1_U714.YINT)    0.0000    (X_U1.X_UCLK1_U715.YINT)    0.0000        

(X_U1.X_UCLK1_U716.qint) 5.509E-15    (X_U1.X_UCLK1_U836.YINT)     .5507        

(X_U1.X_UCLK1_U837.YINT)    0.0000    (X_U1.X_UCLK1_U838.qint) 1.103E-15        

(X_U1.X_UCLK1_U839.YINT)    0.0000    (X_U1.X_UCLK2_U131.Yint)    0.0000        

(X_U1.X_UCLK2_U132.Yint)    0.0000    (X_U1.X_UCLK2_U133.Yint)    0.0000        

(X_U1.X_UCLK2_U145.YINT)    0.0000    (X_U1.X_UCLK2_U146.YINT)     .5507        

(X_U1.X_UCLK2_U678.Yint)    0.0000    (X_U1.X_UCLK2_U679.Yint)    0.0000        

(X_U1.X_UCLK2_U685.YINT)    0.0000    (X_U1.X_UCLK2_U690.YINT)     .5507        

(X_U1.X_UCLK2_U691.YINT)     .5507    (X_U1.X_UCLK2_U695.YINT)    0.0000        

(X_U1.X_UCLK2_U698.YINT)     .5507    (X_U1.X_UCLK2_U699.YINT)    0.0000        

(X_U1.X_UCLK2_U705.YINT)    0.0000    (X_U1.X_UCLK2_U708.YINT)    0.0000        

(X_U1.X_UCLK2_U713.YINT)     .5507    (X_U1.X_UCLK2_U714.YINT)    0.0000        

(X_U1.X_UCLK2_U716.qint)    -.0055    (X_U1.X_UCLK2_U717.YINT)     .5507        

(X_U1.X_UCLK2_U718.qint) 5.509E-15    (X_U1.X_UCLK2_U836.YINT)     .5507        

(X_U1.X_UCLK2_U837.YINT)    0.0000    (X_U1.X_UCLK2_U838.qint) 1.103E-15        

(X_U1.X_UCLK2_U839.YINT)    0.0000    (X_U1.X_UDRV1_U629.qint) 1.103E-15        

(X_U1.X_UDRV1_U825.YINT)    0.0000    (X_U1.X_UDRV1_U827.YINT)    0.0000        

(X_U1.X_UDRV1_U828.YINT)     .5507    (X_U1.X_UDRV1_U835.YINT)     .5507        

(X_U1.X_UDRV1_U841.YINT)     .5507    (X_U1.X_UDRV1_U842.YINT)    0.0000        

(X_U1.X_UDRV1_U847.qint)    -.0055    (X_U1.X_UDRV1_U848.INM1)    -.1819        

(X_U1.X_UDRV1_U848.INP1)    0.0000    (X_U1.X_UDRV1_U848.INP2) 303.2E-06        

(X_U1.X_UDRV1_U849.YINT)    0.0000    (X_U1.X_UDRV2_U629.qint) 1.103E-15        

(X_U1.X_UDRV2_U825.YINT)    0.0000    (X_U1.X_UDRV2_U827.YINT)    0.0000        

(X_U1.X_UDRV2_U828.YINT)     .5507    (X_U1.X_UDRV2_U835.YINT)     .5507        

(X_U1.X_UDRV2_U841.YINT)     .5507    (X_U1.X_UDRV2_U842.YINT)    0.0000        

(X_U1.X_UDRV2_U847.qint)    -.0055    (X_U1.X_UDRV2_U848.INM1)    -.1819        

(X_U1.X_UDRV2_U848.INP1)    0.0000    (X_U1.X_UDRV2_U848.INP2) 303.2E-06        

(X_U1.X_UDRV2_U849.YINT)    0.0000    (X_U1.X_U10_U1_U828.YINT)     .5507       

(X_U1.X_U10_U2_U618.YINT)    0.0000   (X_U1.X_U10_U2_U620.YINT)     .5507       

(X_U1.X_U10_U2_U621.YINT)     .5507   (X_U1.X_U10_U3_U618.YINT)    0.0000       

(X_U1.X_U11_U634.x3.YINT)    0.0000   (X_U1.X_U13_U1_U828.YINT)     .5507       

(X_U1.X_U13_U2_U618.YINT)    0.0000   (X_U1.X_U13_U2_U620.YINT)     .5507       

(X_U1.X_U13_U2_U621.YINT)     .5507   (X_U1.X_U13_U3_U618.YINT)    0.0000       

(X_U1.X_U14_U690.x3.YINT)    0.0000   (X_U1.X_U18_U144.x3.YINT)    0.0000       

(X_U1.X_U5_U3_U607.YINT1)    0.0000   (X_U1.X_U5_U3_U607.YINT2)    0.0000       

(X_U1.X_U5_U3_U607.YINT3)     .5507   (X_U1.X_U5_U4_U607.YINT1)    0.0000       

(X_U1.X_U5_U4_U607.YINT2)    0.0000   (X_U1.X_U5_U4_U607.YINT3)     .5507       

(X_U1.X_UCLK1_U704.myvss)    0.0000   (X_U1.X_UCLK1_U704.qqqd1)    0.0000       

(X_U1.X_UCLK1_U716.qqqd1)    0.0000   (X_U1.X_UCLK1_U838.myvss)    0.0000       

(X_U1.X_UCLK1_U838.qqqd1)    0.0000   (X_U1.X_UCLK2_U716.myvss)    0.0000       

(X_U1.X_UCLK2_U716.qqqd1)    0.0000   (X_U1.X_UCLK2_U718.qqqd1)    0.0000       

(X_U1.X_UCLK2_U838.myvss)    0.0000   (X_U1.X_UCLK2_U838.qqqd1)    0.0000       

(X_U1.X_UDRV1_U629.myvss)    0.0000   (X_U1.X_UDRV1_U629.qqqd1)    0.0000       

(X_U1.X_UDRV1_U826.YINT1)    0.0000   (X_U1.X_UDRV1_U826.YINT2)    0.0000       

(X_U1.X_UDRV1_U826.YINT3)     .5507   (X_U1.X_UDRV1_U847.myvss)    0.0000       

(X_U1.X_UDRV1_U847.qqqd1)    0.0000   (X_U1.X_UDRV2_U629.myvss)    0.0000       

(X_U1.X_UDRV2_U629.qqqd1)    0.0000   (X_U1.X_UDRV2_U826.YINT1)    0.0000       

(X_U1.X_UDRV2_U826.YINT2)    0.0000   (X_U1.X_UDRV2_U826.YINT3)     .5507       

(X_U1.X_UDRV2_U847.myvss)    0.0000   (X_U1.X_UDRV2_U847.qqqd1)    0.0000       

(X_U1.X_U10_U2_U607.YINT1)    0.0000  (X_U1.X_U10_U2_U607.YINT2)    0.0000      

(X_U1.X_U10_U2_U607.YINT3)    0.0000  (X_U1.X_U10_U2_U608.YINT1)    0.0000      

(X_U1.X_U10_U2_U608.YINT2)    0.0000  (X_U1.X_U10_U2_U608.YINT3)    0.0000      

(X_U1.X_U10_U3_U607.YINT1)     .5507  (X_U1.X_U10_U3_U607.YINT2)     .5507      

(X_U1.X_U10_U3_U607.YINT3)     .5507  (X_U1.X_U13_U2_U607.YINT1)    0.0000      

(X_U1.X_U13_U2_U607.YINT2)    0.0000  (X_U1.X_U13_U2_U607.YINT3)    0.0000      

(X_U1.X_U13_U2_U608.YINT1)    0.0000  (X_U1.X_U13_U2_U608.YINT2)    0.0000      

(X_U1.X_U13_U2_U608.YINT3)    0.0000  (X_U1.X_U13_U3_U607.YINT1)     .5507      

(X_U1.X_U13_U3_U607.YINT2)     .5507  (X_U1.X_U13_U3_U607.YINT3)     .5507      

(X_U1.X_UCLK1_U716.clkdel)    0.0000  (X_U1.X_UCLK1_U716.clkint)    0.0000      

(X_U1.X_UCLK2_U718.clkdel)    0.0000  (X_U1.X_UCLK2_U718.clkint)    0.0000      

(X_U1.X_UCLK1_U704.x3.YINT)    0.0000 (X_U1.X_UCLK1_U716.clkdel1)    0.0000     

(X_U1.X_UCLK1_U716.x1.YINT)    0.0000 (X_U1.X_UCLK1_U716.x2.YINT)    0.0000     

(X_U1.X_UCLK1_U838.x3.YINT)    0.0000 (X_U1.X_UCLK2_U716.x3.YINT)    0.0000     

(X_U1.X_UCLK2_U718.clkdel1)    0.0000 (X_U1.X_UCLK2_U718.x1.YINT)    0.0000     

(X_U1.X_UCLK2_U718.x2.YINT)    0.0000 (X_U1.X_UCLK2_U838.x3.YINT)    0.0000     

(X_U1.X_UDRV1_U629.x3.YINT)    0.0000 (X_U1.X_UDRV1_U847.x3.YINT)    0.0000     

(X_U1.X_UDRV2_U629.x3.YINT)    0.0000 (X_U1.X_UDRV2_U847.x3.YINT)    0.0000     

(X_U1.X_UCLK1_U716.x3.YINT1)    0.0000                                          

(X_U1.X_UCLK1_U716.x3.YINT2)    0.0000                                          

(X_U1.X_UCLK1_U716.x3.YINT3)    0.0000                                          

(X_U1.X_UCLK2_U718.x3.YINT1)    0.0000                                          

(X_U1.X_UCLK2_U718.x3.YINT2)    0.0000                                          

(X_U1.X_UCLK2_U718.x3.YINT3)    0.0000                   


ERROR(ORPSIM-16550): Floating point computation failed during matrix solution. Possible solutions: 1)Ensure that all device parameters are in valid range. 2)Try using .options LIMIT

INTERNAL ERROR -- Divide by Zero, Divide(1e-06, 0)

ABORTING SIMULATION
**** 03/05/26 12:02:25 **** PSpice 23.1.0 (30 January 2024) *** ID# 0 ********

 ** Profile: "Retry-debug2"  [ C:\Users\WFE\Documents\automotive_dcdc\sims-PSpiceFiles\Retry\debug2.sim ] 


 ****     JOB STATISTICS SUMMARY


******************************************************************************



Node counts:
  Top level (NUNODS)                =          28
  External (NCNODS)                 =         877
  Total (NUMNOD)                    =         969

Total device count (NUMEL)          =          35
  Capacitors (C)                    =          11
  Diodes (D)                        =           2
  VCVS (E)                          =           0
  VCCS (G)                          =           0
  CCVS (H)                          =           0
  Inductors (L)                     =           2
  MosFETs (M)                       =           4
  Resistors (R)                     =          13
  VSwitches (S)                     =           0
  Voltage Sources (V)               =           1

Number of subcircuits (X)           =           1

Matrix statistics:
  Matrix size (NSTOP)               =        1440
  Initial no. elements (NTTAR)      =        3761
  No. elements w/ fillin (NTTBR)    =        5108
  No. fillins (IFILL)               =        1347
  No. overflows (NTTOV)             =         988
  No. LU operations (IOPS)          =        4652
  Percent sparsity (PERSPA)         =      99.754

Analysis statistics:
  No. total time points (NUMTTP)    =      373371
  No. rejected time points (NUMRTP) =      134222
  No. iterations (NUMNIT)           =     2407392

Load Threads                        =          16

Runtime statistics:                       Seconds      Iterations   Stopped At
  Matrix load                       =      833.50
  Matrix solution                   =       31.60              15
  Readin                            =        2.08
  General setup                     =         .27
  CMI setup                     =        0.00
  Setup                             =         .19
  DC sweep                          =        0.00               0
  Bias point                        =      952.19               0
  Default algorithm                 =       10.02           -7000
  GMIN stepping                     =        9.03            7000     100.00m
  Supply stepping                   =       26.08               0       55.07%
  Quasi-tran                        =      907.06               0        0.00%
  AC and noise                      =        0.00               0
  Total transient analysis          =        0.00
  Output                            =        0.00
  Overhead                          =         .09
  Total job time (using Solver 1)   =      954.55
