
**** 03/06/26 00:14:19 **** PSpice 23.1.0 (30 January 2024) *** ID# 0 ********

 ** Profile: "quickStart-quickstart"  [ C:\Users\WFE\Documents\automotive_dcdc\sims-PSpiceFiles\quickStart\quickstart.sim ] 


 ****     CIRCUIT DESCRIPTION


******************************************************************************




** Creating circuit file "quickstart.cir" 
** WARNING: THIS AUTOMATICALLY GENERATED FILE MAY BE OVERWRITTEN BY SUBSEQUENT SIMULATIONS

*Libraries: 
* Profile Libraries :
* Local Libraries :
* From [PSPICE NETLIST] section of C:\cds_spb_home\cdssetup\OrCAD_PSpiceTIPSpice_Install\23.1.0\PSpice.ini file:
.lib "nom_pspti.lib" 
.lib "nom.lib" 

*Analysis directives: 
.TRAN  0 3000ns 0 
.OPTIONS ADVCONV
.OPTIONS FILEMODELSEARCH
.PROBE64 N([VIN])
.PROBE64 N([VOUT])
.INC "..\quickStart.net" 



**** INCLUDING quickStart.net ****
* source SIMS
X_U1         0 COMP COMP N00744 N00303 VDDA VDDA VIN VIN 0 FB1 0 N00720 N00272
+  N00724 N00283 N00728 N00287 N00736 N00299 N00736 N00299 VDDA N00752 N00311 0 0
+  N00772 N00776 SS SS SW1 SW2 N05504 VCC VCC N00268 VDDA VIN VOUT VOUT
+  LM5143-Q1_TRANS PARAMS: MODE=0
C_C1         0 SS  100n  TC=0,0 
C_C2         0 N00772  470n  TC=0,0 
R_R1         0 N00776  158k TC=0,0 
R_R2         N00728 N00724  1 TC=0,0 
R_R3         N00283 N00287  1 TC=0,0 
C_C3         0 VCC  4.4u  TC=0,0 
D_D1         VCC N00720 Dbreak 
C_C4         SW1 N00720  470n  TC=0,0 
D_D2         VCC N00272 Dbreak 
C_C5         SW2 N00272  470n  TC=0,0 
M_M1         VIN N00287 SW2 SW2 power_Mbreakn           
M_M2         SW2 N00299 0 0 power_Mbreakn           
L_L1         SW2 N00303  5u  
R_R4         N00303 VOUT  1.4m TC=0,0 
C_C7         0 VOUT  100u  TC=0,0 
C_C8         0 VOUT  100u  TC=0,0 
L_L2         SW1 N00744  5u  
R_R5         N00744 VOUT  1.4m TC=0,0 
M_M3         VIN N00728 SW1 SW1 power_Mbreakn           
M_M4         SW1 N00736 0 0 power_Mbreakn           
R_R6         FB1 VOUT  215k TC=0,0 
R_R7         0 FB1  11.3k TC=0,0 
C_C9         0 N04006  47n  TC=0,0 
C_C10         0 COMP  1n  TC=0,0 
R_R8         N04006 COMP  2.49k TC=0,0 
C_C11         0 VDDA  470n  TC=0,0 
V_V1         VIN 0 35Vdc
C_C12         0 VIN  400u  TC=0,0 
R_R9         0 N00752  1000k TC=0,0 
R_R10         N00311 0  1000k TC=0,0 
R_R11         0 N05504  1000k TC=0,0 
C_C13         N00268 0  2.2u  TC=0,0 
V_V2         N00268 0 5Vdc

**** RESUMING quickstart.cir ****
.END

**** 03/06/26 00:14:19 **** PSpice 23.1.0 (30 January 2024) *** ID# 0 ********

 ** Profile: "quickStart-quickstart"  [ C:\Users\WFE\Documents\automotive_dcdc\sims-PSpiceFiles\quickStart\quickstart.sim ] 


 ****     MOSFET MODEL PARAMETERS


******************************************************************************




               power_Mbreakn   
               NMOS            
       LEVEL    3            
           L    1.000000E-06 
           W    1            
         VTO    3            
          KP   20.718860E-06 
       GAMMA    0            
         PHI     .6          
      LAMBDA    0            
          RD     .1          
          RS     .01         
          RG     .5          
         RDS    1.000000E+06 
          IS   10.000000E-15 
          JS    0            
          PB     .8          
        PBSW     .8          
         CBD    1.000000E-09 
          CJ    0            
        CJSW    0            
          TT    1.000000E-09 
        CGSO    1.000000E-09 
        CGDO  100.000000E-12 
        CGBO    0            
         TOX  100.000000E-09 
          XJ    0            
       UCRIT   10.000000E+03 
      DIOMOD    1            
         VFB    0            
        LETA    0            
        WETA    0            
          U0    0            
        TEMP    0            
         VDD    5            
       XPART    0            


Starting pseudo-transient algorithm.

INFO(ORPSIM-16594): To improve Pseudotransient Convergence and Performance, set following options to relax stabilization criteria for capacitor currents and inductor voltages: PTRANABSTOL=1e-5, PTRANVNTOL=1e-4

WARNING(ORPSIM-16534): Using high values of ITL4 for Speed Level > 0 may increase total simulation job time.

ERROR -- Convergence problem in transient bias point calculation


  Last node voltages tried were:

 NODE   VOLTAGE     NODE   VOLTAGE     NODE   VOLTAGE     NODE   VOLTAGE


(   SS)    1.4579  (  FB1)     .7834  (  SW1)   15.6890  (  SW2)   15.6890      

(  VCC)    5.0000  (  VIN)   35.0000  ( COMP)    -.0207  ( VDDA)    5.0000      

( VOUT)   15.6890  (N00268)    5.0000 (N00272)   21.1100 (N00283)   15.6890     

(N00287)   15.6890 (N00299) 500.0E-09 (N00303)   15.6890 (N00311)    0.0000     

(N00720)   25.4880 (N00724)   15.6890 (N00728)   15.6890 (N00736) 500.0E-09     

(N00744)   15.6890 (N00752)    0.0000 (N00772) 209.6E-09 (N00776)     .8000     

(N04006)    -.0207 (N05504)    0.0000 (X_U1.DN)    0.0000                       

(X_U1.UP)    0.0000                   (X_U1.CLK)     .8120                      

(X_U1.CLK2)    0.0000                 (X_U1.FPWM)    1.0000                     

(X_U1.OVP1)    1.0000                 (X_U1.OVP2)    1.0000                     

(X_U1.PH11) 116.7E-30                 (X_U1.PH12) 48.71E-30                     

(X_U1.PH21)    1.0000                 (X_U1.PH22)    1.0000                     

(X_U1.CLKD1)    0.0000                (X_U1.CLKD2)    0.0000                    

(X_U1.CLKFB)    0.0000                (X_U1.ILIM1)    0.0000                    

(X_U1.ILIM2)    0.0000                (X_U1.ISWH1)     .3000                    

(X_U1.ISWH2)     .3000                (X_U1.SDWN1)    0.0000                    

(X_U1.SDWN2)    0.0000                (X_U1.VFBI1)     .7834                    

(X_U1.VFBI2)    1.8823                (X_U1.VREF1)     .6000                    

(X_U1.VREF2)     .6000                (X_U1.CLKREF)     .9893                   

(X_U1.N73189)    1.0000               (X_U1.N75844)    0.0000                   

(X_U1.NORMAL)    0.0000               (X_U1.U10_PG)    1.0000                   

(X_U1.U13_PG)    1.0000               (X_U1.U19_VC)    2.4645                   

(X_U1.U4_ZCD)    1.0000               (X_U1.U4_ZTH)     .2000                   

(X_U1.U7_VCC)    5.0000               (X_U1.HICCUP1)    0.0000                  

(X_U1.HICCUP2)    0.0000              (X_U1.ISLOPE1)-3.838E-06                  

(X_U1.ISLOPE2)     .0989              (X_U1.N148020)    1.0000                  

(X_U1.N187506)    0.0000              (X_U1.PLL_DIS)    0.0000                  

(X_U1.U10_UVP)    0.0000              (X_U1.U13_UVP)    0.0000                  

(X_U1.U14_ZCD)    1.0000              (X_U1.U14_ZTH)     .2000                  

(X_U1.U19_VCI)    2.4645              (X_U1.U4_LDRV)    0.0000                  

(X_U1.VINOK_B)    0.0000              (X_U1.CLK_SYNC)    0.0000                 

(X_U1.H_BLNCK1)    0.0000             (X_U1.H_BLNCK2)    0.0000                 

(X_U1.L_BLNCK1)    1.0000             (X_U1.L_BLNCK2)    1.0000                 

(X_U1.U14_LDRV)    0.0000             (X_U1.U18_TONE)    0.0000                 

(X_U1.U2_DISCH)    0.0000             (X_U1.U5_H_END)    0.0000                 

(X_U1.UCLK1_SR)    1.0000             (X_U1.UCLK2_SR)    1.0000                 

(X_U1.N16669093)    0.0000            (X_U1.N16682465)    0.0000                

(X_U1.N16783791)    2.0000            (X_U1.N16807997)    1.0000                

(X_U1.N16811359)     .0922            (X_U1.N16816902) 65.62E-09                

(X_U1.N16824422)    1.0000            (X_U1.N16886382)    1.0000                

(X_U1.N16916404)     .9893            (X_U1.PGOOD_EN1)    1.0000                

(X_U1.PGOOD_EN2)    1.0000            (X_U1.U10_OVP_N)    0.0000                

(X_U1.U10_UVP_N)    1.0000            (X_U1.U11_DISCH)    0.0000                

(X_U1.U13_OVP_N)    0.0000            (X_U1.U13_UVP_N)    1.0000                

(X_U1.U18_QB_DN)    1.0000            (X_U1.U18_QB_UP)     .1016                

(X_U1.U18_QCLK1)    1.0000            (X_U1.U18_QCLK2)    1.0000                

(X_U1.U2_N25555)    1.0000            (X_U1.U2_N67870)    2.8521                

(X_U1.U2_N67984)    4.7500            (X_U1.U2_N68066)    1.8823                

(X_U1.U2_N71046) 1.000E-06            (X_U1.U2_N72189)    0.0000                

(X_U1.U2_N95734)    1.0000            (X_U1.U4_N08357)-377.7E-30                

(X_U1.U4_N08485)    1.0000            (X_U1.U4_N08737)    1.0000                

(X_U1.U4_N09129)    1.0000            (X_U1.U4_N09375)    0.0000                

(X_U1.U4_N09637)    0.0000            (X_U1.U4_N70409)    1.0000                

(X_U1.U4_N85373)    1.0000            (X_U1.U4_N86437)    0.0000                

(X_U1.U5_COUNT1)    0.0000            (X_U1.U5_COUNT2)    0.0000                

(X_U1.U7_EN_OK1)    1.0000            (X_U1.U7_EN_OK2)    1.0000                

(X_U1.U7_VCC_OK)    1.0000            (X_U1.U7_VIN_OK)    1.0000                

(X_U1.UCLK1_VC1) 33.45E-12            (X_U1.UCLK1_VC2) 338.9E-06                

(X_U1.UCLK2_VC1) 26.89E-12            (X_U1.UCLK2_VC2)     .9349                

(X_U1.VOUT1_3P3)    0.0000            (X_U1.U10_GLITCH)    1.0000               

(X_U1.U10_TDELAY)    1.0000           (X_U1.U10_TONMIN)    1.0000               

(X_U1.U11_N17872)    1.0000           (X_U1.U11_N37577)    1.0000               

(X_U1.U11_N75584)    2.8521           (X_U1.U11_N75696)    4.7500               

(X_U1.U11_N75748)    1.8823           (X_U1.U11_N75810) 1.000E-06               

(X_U1.U11_N75836)    1.0000           (X_U1.U11_N96216)    1.0000               

(X_U1.U13_GLITCH)    1.0000           (X_U1.U13_TDELAY)    1.0000               

(X_U1.U13_TONMIN)    1.0000           (X_U1.U14_N08357)-156.4E-30               

(X_U1.U14_N08485)    1.0000           (X_U1.U14_N08737)    1.0000               

(X_U1.U14_N09129)    1.0000           (X_U1.U14_N09375)    0.0000               

(X_U1.U14_N09637)    0.0000           (X_U1.U14_N70409)    1.0000               

(X_U1.U14_N85373)    1.0000           (X_U1.U14_N86437)    0.0000               

(X_U1.U18_PLL_EN)    1.0000           (X_U1.U19_VDDBY2)    2.5000               

(X_U1.U4_N152364)    1.0000           (X_U1.U5_N107511)    0.0000               

(X_U1.U5_N107542)    4.7500           (X_U1.U5_N107559)    1.0000               

(X_U1.U5_N107566)    0.0000           (X_U1.U5_N133651)    1.0000               

(X_U1.U5_N133661)    0.0000           (X_U1.U5_N146142)    0.0000               

(X_U1.U7_ENOK_B1)    0.0000           (X_U1.U7_ENOK_B2)    0.0000               

(X_U1.U7_VCCOK_B)    0.0000           (X_U1.U7_VCCX_OK)    1.0000               

(X_U1.UCLK1_VDC3)    3.0000           (X_U1.UCLK1_VREF)    1.2000               

(X_U1.UCLK2_VDC3)    3.0000           (X_U1.UCLK2_VREF)    1.2000               

(X_U1.ULTRA_LOW1)    0.0000           (X_U1.ULTRA_LOW2)    0.0000               

(X_U1.CLK_INT_DIS)    0.0000          (X_U1.INTERLEAVED)    1.0000              

(X_U1.SSCOMPLETE1)     .9644          (X_U1.SSCOMPLETE2)     .9644              

(X_U1.TIME_PERIOD) 316.5E-09          (X_U1.U14_N152364)    1.0000              

(X_U1.U18_CLK1_PE)     .9501          (X_U1.U18_CLK2_PE)    0.0000              

(X_U1.U18_N183829)     .0243          (X_U1.U18_N183909)    1.0000              

(X_U1.U18_N184201)    1.0000          (X_U1.U18_N184319)    0.0000              

(X_U1.U18_N184411)    0.0000          (X_U1.U18_N184513)    0.0000              

(X_U1.U18_N187036)   32.0000          (X_U1.U18_N187496)    0.0000              

(X_U1.U18_N187548)    1.0000          (X_U1.U18_RESET_B)    1.0000              

(X_U1.U19_N163174)    2.4645          (X_U1.U4_LDRV_INT)    1.0000              

(X_U1.U5_I_PULSE1)    0.0000          (X_U1.U5_I_PULSE2)    0.0000              

(X_U1.U98_RT_FREQ) 139.2E+03          (X_U1.UCLK1_RAMP1)    3.0000              

(X_U1.UCLK1_VREF2)    2.5000          (X_U1.UCLK2_RAMP1)    2.9324              

(X_U1.UCLK2_VREF2)    2.5000          (X_U1.UDRV1_PH1_1)    0.0000              

(X_U1.UDRV1_PH2_1)    1.0000          (X_U1.UDRV2_PH1_1)    0.0000              

(X_U1.UDRV2_PH2_1)    1.0000          (X_U1.X_U4_U693.1)    1.0000              

(X_U1.X_U7_U613.1)    1.0000          (X_U1.X_U7_U614.1)    1.0000              

(X_U1.X_U7_U615.1)    1.0000          (X_U1.X_U7_U620.1)    1.0000              

(X_U1.X_U7_U627.1)    1.0000          (X_U1.U14_LDRV_INT)    1.0000             

(X_U1.U2_N16784744)    1.0000         (X_U1.U2_N16784762)     .9084             

(X_U1.U2_N16785529)    1.0000         (X_U1.U2_N16785551)     .7834             

(X_U1.U4_LDRV_INTB)    0.0000         (X_U1.U4_N16790065)     .3000             

(X_U1.U4_N16837589)    0.0000         (X_U1.U4_N16837627)    0.0000             

(X_U1.U4_N16877418)    0.0000         (X_U1.U4_N16902652)     .3000             

(X_U1.U4_N16914282) 1.000E-06         (X_U1.U4_N16922955)    1.0000             

(X_U1.U4_N16923004)    1.0000         (X_U1.U5_HICCUP1_N)    1.0000             

(X_U1.U5_HICCUP2_N)    1.0000         (X_U1.U5_N16630382)    0.0000             

(X_U1.U5_N16648145)    0.0000         (X_U1.U5_N16652648)    0.0000             

(X_U1.U5_N16652652)    0.0000         (X_U1.U5_N16652662)  512.0000             

(X_U1.U5_N16652718)    1.0000         (X_U1.U5_N16652752)    1.0000             

(X_U1.U5_N16652904)    0.0000         (X_U1.U5_N16661334)    1.0000             

(X_U1.U5_N16662055)    5.0668         (X_U1.U5_N16662059)    5.0000             

(X_U1.U5_N16664681)     .6112         (X_U1.U5_N16665826)    4.0000             

(X_U1.U5_N16679698)    1.0000         (X_U1.U5_N16682119)    5.0638             

(X_U1.U5_N16682177)    0.0000         (X_U1.U5_N16682213)    1.0000             

(X_U1.U5_N16682227)    5.0000         (X_U1.U5_N16682325)    0.0000             

(X_U1.U5_N16682357)    4.0000         (X_U1.U5_N16683669)    1.0000             

(X_U1.U5_N16777867)    0.0000         (X_U1.U5_N16777884)  512.0000             

(X_U1.U5_N16777933)    1.0000         (X_U1.U5_N16777952)    0.0000             

(X_U1.U5_N16778004)    1.2000         (X_U1.U5_N16778062)    0.0000             

(X_U1.U5_N16864724)    1.0000         (X_U1.U5_U3_N04955)    0.0000             

(X_U1.U5_U4_N04955)    0.0000         (X_U1.U7_N16734802)     .0900             

(X_U1.U7_N16734846)    3.2000         (X_U1.U7_N16735008)    1.2000             

(X_U1.U7_N16735086)    2.0000         (X_U1.U7_N16735276)     .0900             

(X_U1.U7_N16735320)    3.3000         (X_U1.U7_N16735430)    4.3000             

(X_U1.U7_N16735502)     .2000         (X_U1.U7_N16735566)    5.0000             

(X_U1.U7_N16747479)    1.2000         (X_U1.U7_N16747493)    2.0000             

(X_U1.U7_N16772254)   35.0000         (X_U1.U7_N16781951)    1.0000             

(X_U1.U7_N16784507)    1.0000         (X_U1.UCLK1_ENSYNC)    0.0000             

(X_U1.X_U10_U613.1)    0.0000         (X_U1.X_U10_U614.1)    0.0000             

(X_U1.X_U13_U613.1)    0.0000         (X_U1.X_U13_U614.1)    0.0000             

(X_U1.X_U14_U693.1)    1.0000         (X_U1.X_U2_U3.YINT)    0.0000             

(X_U1.X_U2_U5.YINT)    1.0000         (X_U1.X_U2_U6.YINT)    1.0000             

(X_U1.X_U5_U30.my5)    1.0000         (X_U1.X_U5_U30.qbr)    1.0000             

(X_U1.X_U5_U30.qqq)    -.0303         (X_U1.X_U5_U31.my5)    1.0000             

(X_U1.X_U5_U31.qbr)    1.0000         (X_U1.X_U5_U31.qqq)    -.0303             

(X_U1.X_U5_U639.ch)    0.0000         (X_U1.X_U5_U642.ch)    0.0000             

(X_U1.X_U98_U676.1)    1.0000         (X_U1.U10_N16625533)     .0204            

(X_U1.U10_N16626981)     .0204        (X_U1.U10_N16627165)     .6600            

(X_U1.U10_N16787180)     .5520        (X_U1.U10_N16799779)    0.0000            

(X_U1.U10_N16803363)    0.0000        (X_U1.U10_N16805765)    1.0000            

(X_U1.U10_U1_N02680)    1.0000        (X_U1.U10_U2_N00140)    1.0000            

(X_U1.U10_U2_N00220)    0.0000        (X_U1.U10_U2_N00780)    1.0000            

(X_U1.U10_U2_N02470)    1.0000        (X_U1.U10_U2_N03610)    0.0000            

(X_U1.U10_U3_N04955)    0.0000        (X_U1.U11_CHOOSE3P3)    0.0000            

(X_U1.U11_N16784744)    1.0000        (X_U1.U11_N16784762)    2.0073            

(X_U1.U11_N16785549)    1.8823        (X_U1.U13_N16625533)     .0204            

(X_U1.U13_N16626981)     .0204        (X_U1.U13_N16627165)     .6600            

(X_U1.U13_N16787180)     .5520        (X_U1.U13_N16799779)    0.0000            

(X_U1.U13_N16803363)    0.0000        (X_U1.U13_N16805765)    1.0000            

(X_U1.U13_U1_N02680)    1.0000        (X_U1.U13_U2_N00140)    1.0000            

(X_U1.U13_U2_N00220)    0.0000        (X_U1.U13_U2_N00780)    1.0000            

(X_U1.U13_U2_N02470)    1.0000        (X_U1.U13_U2_N03610)    0.0000            

(X_U1.U13_U3_N04955)    0.0000        (X_U1.U14_LDRV_INTB)    0.0000            

(X_U1.U14_N16790065)     .3000        (X_U1.U14_N16837589)    0.0000            

(X_U1.U14_N16837627)    0.0000        (X_U1.U14_N16877418)    0.0000            

(X_U1.U14_N16902652)     .3000        (X_U1.U14_N16914282) 1.000E-06            

(X_U1.U14_N16922955)    1.0000        (X_U1.U14_N16923004)    1.0000            

(X_U1.U18_DISCHARGE)    0.0000        (X_U1.U18_PLL_COUNT)     .0064            

(X_U1.U2_ADJ_DETECT)    1.0000        (X_U1.U2_CHOOSE_ADJ)     .7834            

(X_U1.U97_N16773228)   16.0000        (X_U1.U97_N16779114)   16.0000            

(X_U1.U97_N16785670)    0.0000        (X_U1.U97_N16786708)    0.0000            

(X_U1.U97_N16788036)    0.0000        (X_U1.U97_ULTRA_LOW)    0.0000            

(X_U1.U98_N16769147)    2.0000        (X_U1.U98_N16769333)    1.2000            

(X_U1.U98_N16776010)    1.2779        (X_U1.U98_N16776592)    1.2000            

(X_U1.U98_N16777841)    1.2779        (X_U1.U98_N16783053) 167.1E+03            

(X_U1.U98_N16784765) 111.4E+03        (X_U1.U98_N16785649)    1.0000            

(X_U1.U98_N16785854)    0.0000        (X_U1.U98_N16804679)    1.0000            

(X_U1.U98_N16804691)     .0200        (X_U1.U98_N16804696)    1.0000            

(X_U1.U98_N16807781)    1.0000        (X_U1.U98_SYNC_FREQ) 100.0E+03            

(X_U1.U99_N16774936)     .8000        (X_U1.UCLK1_CLK_INT)     .8984            

(X_U1.UCLK1_FAKEPWM)    0.0000        (X_U1.UCLK1_N105129)     .9856            

(X_U1.UCLK1_N105603)    1.0000        (X_U1.UCLK1_N142689)     .8984            

(X_U1.UCLK1_N142694)     .1880        (X_U1.UCLK1_N143410)    0.0000            

(X_U1.UCLK1_N148013)     .3871        (X_U1.UCLK1_TIMEBY4)    0.0000            

(X_U1.UCLK2_CLK_INT)    0.0000        (X_U1.UCLK2_FAKEPWM)    0.0000            

(X_U1.UCLK2_N105129)-5.310E-12        (X_U1.UCLK2_N105603)    1.0000            

(X_U1.UCLK2_N142689)    1.0000        (X_U1.UCLK2_N142694)    0.0000            

(X_U1.UCLK2_TIMEBY4)    0.0000        (X_U1.UDRV1_PREBIAS)    1.0000            

(X_U1.UDRV2_PREBIAS)    1.0000        (X_U1.UEA2_COMP_INT)    -.0207            

(X_U1.X_U11_U3.YINT)    0.0000        (X_U1.X_U11_U5.YINT)    1.0000            

(X_U1.X_U11_U6.YINT)    1.0000        (X_U1.X_U18_U1.YINT)    0.0000            

(X_U1.X_U18_U143.ch)    1.0000        (X_U1.X_U18_U2.YINT)    1.0000            

(X_U1.X_U18_U3.YINT)    0.0000        (X_U1.X_U18_U4.YINT)    0.0000            

(X_U1.X_U18_U5.YINT)    1.0000        (X_U1.X_U18_U6.YINT)    0.0000            

(X_U1.X_U18_U7.YINT)    0.0000        (X_U1.X_U18_U8.YINT)    1.0000            

(X_U1.X_U18_U9.YINT)    1.0000        (X_U1.X_U2_U634.my5)    1.0000            

(X_U1.X_U2_U634.qbr)    0.0000        (X_U1.X_U2_U634.qqq)    1.1185            

(X_U1.X_U4_U690.my5)    1.0000        (X_U1.X_U4_U690.qbr)    0.0000            

(X_U1.X_U4_U690.qqq)    1.1185        (X_U1.X_U5_U30.qint)    -.0303            

(X_U1.X_U5_U31.qint)    -.0303        (X_U1.X_U5_U640.my5)    1.0000            

(X_U1.X_U5_U640.qbr)    0.0000        (X_U1.X_U5_U640.qqq)    1.0199            

(X_U1.X_U5_U641.my5)    1.0000        (X_U1.X_U5_U641.qbr)    0.0000            

(X_U1.X_U5_U641.qqq)    1.0199        (X_U1.X_U97_U1.Yint)    1.0000            

(X_U1.X_U97_U2.Yint)    1.0000        (X_U1.X_U97_U4.YINT)    0.0000            

(X_U1.X_U97_U5.YINT)    0.0000        (X_U1.X_U97_U6.YINT)    0.0000            

(X_U1.X_U97_U7.YINT)    0.0000        (X_U1.X_U97_U8.YINT)    0.0000            

(X_U1.X_U98_U143.ch)    1.0000        (X_U1.U11_ADJ_DETECT)    0.0000           

(X_U1.U11_CHOOSE_ADJ)    0.0000       (X_U1.U4_L_BLNCK_DCM)    1.0000           

(X_U1.UCLK1_SLOPE_CH)     .1863       (X_U1.UCLK2_SLOPE_CH)    0.0000           

(X_U1.UDRV1_CSASLOPE)     .3000       (X_U1.UDRV2_CSASLOPE)     .3989           

(X_U1.UEA1_N16743331)    2.0000       (X_U1.UEA1_N16743581)    0.0000           

(X_U1.UEA1_N16743799)    -.0200       (X_U1.UEA2_N16743331)    2.0000           

(X_U1.UEA2_N16743581)    0.0000       (X_U1.UEA2_N16743799)    -.0200           

(X_U1.X_U11_U634.my5)    1.0000       (X_U1.X_U11_U634.qbr)    1.0000           

(X_U1.X_U11_U634.qqq)    -.0303       (X_U1.X_U14_U690.my5)    1.0000           

(X_U1.X_U14_U690.qbr)    0.0000       (X_U1.X_U14_U690.qqq)    1.1185           

(X_U1.X_U18_U144.my5)    1.0000       (X_U1.X_U18_U144.qbr)    0.0000           

(X_U1.X_U18_U144.qqq)    1.0200       (X_U1.X_U18_U22.YINT)    1.0000           

(X_U1.X_U18_U23.YINT)    0.0000       (X_U1.X_U18_U24.YINT)    0.0000           

(X_U1.X_U18_U25.YINT)    1.0000       (X_U1.X_U18_U28.YINT)    0.0000           

(X_U1.X_U2_U626.YINT)     .7834       (X_U1.X_U2_U627.Yint)    0.0000           

(X_U1.X_U2_U630.YINT)     .7834       (X_U1.X_U2_U631.Yint)    1.0000           

(X_U1.X_U2_U633.Yint)    1.0000       (X_U1.X_U2_U634.qint)    1.1185           

(X_U1.X_U4_U612.YINT)    0.0000       (X_U1.X_U4_U613.YINT)    1.0000           

(X_U1.X_U4_U648.YINT)    1.0000       (X_U1.X_U4_U650.YINT)    1.0000           

(X_U1.X_U4_U651.YINT)    1.0000       (X_U1.X_U4_U652.YINT)    1.0000           

(X_U1.X_U4_U653.YINT)    1.0000       (X_U1.X_U4_U655.YINT)    0.0000           

(X_U1.X_U4_U657.YINT)    0.0000       (X_U1.X_U4_U685.YINT)    0.0000           

(X_U1.X_U4_U687.YINT)    0.0000       (X_U1.X_U4_U688.YINT)    1.0000           

(X_U1.X_U4_U690.qint)    1.1185       (X_U1.X_U4_U691.YINT)    0.0000           

(X_U1.X_U4_U692.YINT)    0.0000       (X_U1.X_U4_U693.INM1)  -15.4890           

(X_U1.X_U4_U693.INP1)    0.0000       (X_U1.X_U4_U693.INP2) 1.000E-06           

(X_U1.X_U5_U30.myvss)    0.0000       (X_U1.X_U5_U30.qqqd1)    0.0000           

(X_U1.X_U5_U31.myvss)    0.0000       (X_U1.X_U5_U31.qqqd1)    0.0000           

(X_U1.X_U5_U608.YINT)    0.0000       (X_U1.X_U5_U609.Yint)    0.0000           

(X_U1.X_U5_U612.Yint)    0.0000       (X_U1.X_U5_U613.YINT)    0.0000           

(X_U1.X_U5_U615.YINT)    1.0000       (X_U1.X_U5_U616.Yint)    0.0000           

(X_U1.X_U5_U617.YINT)    1.0000       (X_U1.X_U5_U618.Yint)    1.0000           

(X_U1.X_U5_U619.Yint)    1.0000       (X_U1.X_U5_U629.Yint)    1.0000           

(X_U1.X_U5_U630.YINT)    0.0000       (X_U1.X_U5_U631.YINT)    0.0000           

(X_U1.X_U5_U632.YINT)    0.0000       (X_U1.X_U5_U633.YINT)    1.0000           

(X_U1.X_U5_U634.YINT)    0.0000       (X_U1.X_U5_U637.YINT)    0.0000           

(X_U1.X_U5_U638.YINT)    0.0000       (X_U1.X_U5_U639.meas)    0.0000           

(X_U1.X_U5_U640.qint)    1.0199       (X_U1.X_U5_U641.qint)    1.0199           

(X_U1.X_U5_U642.meas)    0.0000       (X_U1.X_U7_U613.INM1)  -31.8000           

(X_U1.X_U7_U613.INP1)    0.0000       (X_U1.X_U7_U613.INP2)     .0900           

(X_U1.X_U7_U614.INM1)  -33.0000       (X_U1.X_U7_U614.INP1)    0.0000           

(X_U1.X_U7_U614.INP2)    1.2000       (X_U1.X_U7_U615.INM1)  -31.7000           

(X_U1.X_U7_U615.INP1)    0.0000       (X_U1.X_U7_U615.INP2)     .0900           

(X_U1.X_U7_U616.YINT)    0.0000       (X_U1.X_U7_U618.YINT)    0.0000           

(X_U1.X_U7_U620.INM1)    -.7000       (X_U1.X_U7_U620.INP1)    0.0000           

(X_U1.X_U7_U620.INP2)     .2000       (X_U1.X_U7_U621.YINT)    5.0000           

(X_U1.X_U7_U624.YINT)    0.0000       (X_U1.X_U7_U626.YINT)   35.0000           

(X_U1.X_U7_U627.INM1)  -33.0000       (X_U1.X_U7_U627.INP1)    0.0000           

(X_U1.X_U7_U627.INP2)    1.2000       (X_U1.X_U7_U629.YINT)    0.0000           

(X_U1.X_U7_U630.YINT)    0.0000       (X_U1.X_U7_U631.YINT)    0.0000           

(X_U1.X_UDRV1_U848.1)    0.0000       (X_U1.X_UDRV2_U848.1)    0.0000           

(X_U1.X_UEA1_U1.YINT)    0.0000       (X_U1.X_UEA2_U1.YINT)    0.0000           

(X_U1.U14_L_BLNCK_DCM)    1.0000      (X_U1.U4_L_BLNCK_FPWM)    1.0000          

(X_U1.U97_16PWM_RAMP1)   16.0760      (X_U1.U97_16PWM_RAMP2)   16.0640          

(X_U1.UCLK1_CLKEXTEND)    0.0000      (X_U1.UCLK1_DISCHARGE)     .1125          

(X_U1.UCLK1_N16748920)    2.0000      (X_U1.UCLK1_N16748938)    0.0000          

(X_U1.UCLK1_N16750120)     .6112      (X_U1.UCLK1_N16802829)    0.0000          

(X_U1.UCLK1_N16910733)     .3871      (X_U1.UCLK1_N16913784)    0.0000          

(X_U1.UCLK1_N16941463)     .0243      (X_U1.UCLK1_N16941559)    1.0000          

(X_U1.UCLK1_N16941562)    1.0000      (X_U1.UCLK2_CLKEXTEND)    0.0000          

(X_U1.UCLK2_DISCHARGE)-87.94E-15      (X_U1.UCLK2_N16748920)    2.0000          

(X_U1.UCLK2_N16748938)    0.0000      (X_U1.UCLK2_N16750120)    0.0000          

(X_U1.UCLK2_N16778810)     .6000      (X_U1.UCLK2_N16780211)    1.0000          

(X_U1.UCLK2_N16780801)     .6000      (X_U1.UCLK2_N16795843)    0.0000          

(X_U1.UCLK2_N16796127)    1.0000      (X_U1.UCLK2_N16824360)    0.0000          

(X_U1.UCLK2_N16824391)    0.0000      (X_U1.UCLK2_N16824411)    0.0000          

(X_U1.UCLK2_N16833602)    0.0000      (X_U1.UCLK2_N16833698)    1.0000          

(X_U1.UCLK2_N16833701)    1.0000      (X_U1.UDRV1_N16757820)    1.0000          

(X_U1.UDRV1_N16757826)    1.0000      (X_U1.UDRV1_N16757852)    0.0000          

(X_U1.UDRV1_N16758148)    0.0000      (X_U1.UDRV1_N16761308)-218.5E-27          

(X_U1.UDRV1_N16761314) 91.22E-27      (X_U1.UDRV1_N16761336)    1.0000          

(X_U1.UDRV1_N16762313)    0.0000      (X_U1.UDRV1_N16762321)    1.0000          

(X_U1.UDRV1_N16764046)     .3888      (X_U1.UDRV1_N16778236)     .2793          

(X_U1.UDRV1_N16781726)    1.1760      (X_U1.UDRV1_N16805723)     .0010          

(X_U1.UDRV1_N16812981)    1.0000      (X_U1.UDRV2_N16757820)    1.0000          

(X_U1.UDRV2_N16757826)    1.0000      (X_U1.UDRV2_N16757852)    0.0000          

(X_U1.UDRV2_N16758148)    0.0000      (X_U1.UDRV2_N16761308)-407.3E-30          

(X_U1.UDRV2_N16761314) 170.1E-30      (X_U1.UDRV2_N16761336)    1.0000          

(X_U1.UDRV2_N16762313)    0.0000      (X_U1.UDRV2_N16762321)    1.0000          

(X_U1.UDRV2_N16764046)    1.0000      (X_U1.UDRV2_N16778236)     .2793          

(X_U1.UDRV2_N16781726)    1.1760      (X_U1.UDRV2_N16805723)     .0010          

(X_U1.UDRV2_N16812981)    1.0000      (X_U1.X_U10_U613.INM1)     .2314          

(X_U1.X_U10_U613.INP1)    0.0000      (X_U1.X_U10_U613.INP2)    0.0000          

(X_U1.X_U10_U614.INM1)     .1234      (X_U1.X_U10_U614.INP1)    0.0000          

(X_U1.X_U10_U614.INP2)    0.0000      (X_U1.X_U10_U616.YINT)    1.0000          

(X_U1.X_U10_U617.YINT)    1.0000      (X_U1.X_U10_U618.YINT)    1.0000          

(X_U1.X_U11_U626.YINT)    0.0000      (X_U1.X_U11_U627.Yint)    0.0000          

(X_U1.X_U11_U630.YINT)    1.8823      (X_U1.X_U11_U631.Yint)    0.0000          

(X_U1.X_U11_U633.Yint)    1.0000      (X_U1.X_U11_U634.qint)    -.0303          

(X_U1.X_U13_U613.INM1)    1.3303      (X_U1.X_U13_U613.INP1)    0.0000          

(X_U1.X_U13_U613.INP2)    0.0000      (X_U1.X_U13_U614.INM1)    1.2223          

(X_U1.X_U13_U614.INP1)    0.0000      (X_U1.X_U13_U614.INP2)    0.0000          

(X_U1.X_U13_U616.YINT)    1.0000      (X_U1.X_U13_U617.YINT)    1.0000          

(X_U1.X_U13_U618.YINT)    1.0000      (X_U1.X_U14_U612.YINT)    0.0000          

(X_U1.X_U14_U613.YINT)    1.0000      (X_U1.X_U14_U648.YINT)    1.0000          

(X_U1.X_U14_U650.YINT)    1.0000      (X_U1.X_U14_U651.YINT)    1.0000          

(X_U1.X_U14_U652.YINT)    1.0000      (X_U1.X_U14_U653.YINT)    1.0000          

(X_U1.X_U14_U655.YINT)    0.0000      (X_U1.X_U14_U657.YINT)    0.0000          

(X_U1.X_U14_U685.YINT)    0.0000      (X_U1.X_U14_U687.YINT)    0.0000          

(X_U1.X_U14_U688.YINT)    1.0000      (X_U1.X_U14_U690.qint)    1.1185          

(X_U1.X_U14_U691.YINT)    0.0000      (X_U1.X_U14_U692.YINT)    0.0000          

(X_U1.X_U14_U693.INM1)  -15.4890      (X_U1.X_U14_U693.INP1)    0.0000          

(X_U1.X_U14_U693.INP2) 1.000E-06      (X_U1.X_U18_U143.meas)    1.0000          

(X_U1.X_U18_U144.qint)    1.0200      (X_U1.X_U18_U145.YINT)    1.0000          

(X_U1.X_U18_U27.YINT1)    0.0000      (X_U1.X_U18_U27.YINT2)    0.0000          

(X_U1.X_U18_U27.YINT3)    1.0000      (X_U1.X_U18_U29.YINT1)    1.0000          

(X_U1.X_U18_U29.YINT2)    1.0000      (X_U1.X_U18_U29.YINT3)    0.0000          

(X_U1.X_U18_U30.YINT1)    0.0000      (X_U1.X_U18_U30.YINT2)     .9373          

(X_U1.X_U18_U30.YINT3)    0.0000      (X_U1.X_U2_U634.myvss)    0.0000          

(X_U1.X_U2_U634.qqqd1)    1.0000      (X_U1.X_U4_U690.myvss)    0.0000          

(X_U1.X_U4_U690.qqqd1)    1.0000      (X_U1.X_U5_U607.YINT1)    0.0000          

(X_U1.X_U5_U607.YINT2)    0.0000      (X_U1.X_U5_U607.YINT3)    1.0000          

(X_U1.X_U5_U610.YINT1)    0.0000      (X_U1.X_U5_U610.YINT2)    0.0000          

(X_U1.X_U5_U610.YINT3)    1.0000      (X_U1.X_U5_U611.YINT1)    1.0000          

(X_U1.X_U5_U611.YINT2)    1.0000      (X_U1.X_U5_U611.YINT3)    0.0000          

(X_U1.X_U5_U614.YINT1)    0.0000      (X_U1.X_U5_U614.YINT2)    0.0000          

(X_U1.X_U5_U614.YINT3)    1.0000      (X_U1.X_U5_U639.reset)    1.0000          

(X_U1.X_U5_U640.myvss)    0.0000      (X_U1.X_U5_U640.qqqd1)    1.0000          

(X_U1.X_U5_U641.myvss)    0.0000      (X_U1.X_U5_U641.qqqd1)    1.0000          

(X_U1.X_U5_U642.reset)    1.0000      (X_U1.X_U98_U143.meas)    1.0000          

(X_U1.X_U98_U676.INM1)   -3.0000      (X_U1.X_U98_U676.INP1)    0.0000          

(X_U1.X_U98_U676.INP2)    1.2000      (X_U1.X_U98_U677.Yint)    1.0000          

(X_U1.X_U98_U678.Yint)    1.0000      (X_U1.X_U98_U679.Yint)    0.0000          

(X_U1.X_U98_U680.YINT)    0.0000      (X_U1.X_UDRV1_U5.Yint)    1.0000          

(X_U1.X_UDRV1_U6.Yint)    0.0000      (X_U1.X_UDRV2_U5.Yint)    1.0000          

(X_U1.X_UDRV2_U6.Yint)    0.0000      (X_U1.U14_L_BLNCK_FPWM)    1.0000         

(X_U1.U97_16PWM_COUNT1)    1.0000     (X_U1.U97_16PWM_COUNT2)    1.0000         

(X_U1.UCLK1_DISCHARGEB)     .9501     (X_U1.UCLK2_DISCHARGEB)    1.0000         

(X_U1.UCLK2_SYNCCLKOUT)    1.0000     (X_U1.X_U11_U634.myvss)    0.0000         

(X_U1.X_U11_U634.qqqd1)    0.0000     (X_U1.X_U14_U690.myvss)    0.0000         

(X_U1.X_U14_U690.qqqd1)    1.0000     (X_U1.X_U18_U143.reset)    0.0000         

(X_U1.X_U18_U144.myvss)    0.0000     (X_U1.X_U18_U144.qqqd1)    1.0000         

(X_U1.X_U5_U30.x3.YINT)    0.0000     (X_U1.X_U5_U31.x3.YINT)    0.0000         

(X_U1.X_U5_U639.reset2)    1.0000     (X_U1.X_U5_U642.reset2)    1.0000         

(X_U1.X_U98_U143.reset)    0.0000     (X_U1.X_UCLK1_U704.my5)    1.0000         

(X_U1.X_UCLK1_U704.qbr)    1.0000     (X_U1.X_UCLK1_U704.qqq)    -.0803         

(X_U1.X_UCLK1_U716.my5)    5.0000     (X_U1.X_UCLK1_U716.qbr)    1.0000         

(X_U1.X_UCLK1_U716.qqq)    -.3435     (X_U1.X_UCLK1_U838.my5)    1.0000         

(X_U1.X_UCLK1_U838.qbr)    1.0000     (X_U1.X_UCLK1_U838.qqq)    -.0638         

(X_U1.X_UCLK2_U716.my5)    2.0000     (X_U1.X_UCLK2_U716.qbr)    2.0000         

(X_U1.X_UCLK2_U716.qqq)    -.1185     (X_U1.X_UCLK2_U718.my5)    5.0000         

(X_U1.X_UCLK2_U718.qbr)    1.0000     (X_U1.X_UCLK2_U718.qqq)    -.0528         

(X_U1.X_UCLK2_U838.my5)    1.0000     (X_U1.X_UCLK2_U838.qbr)    1.0000         

(X_U1.X_UCLK2_U838.qqq)    -.0528     (X_U1.X_UDRV1_U629.my5)    1.0000         

(X_U1.X_UDRV1_U629.qbr)    1.0000     (X_U1.X_UDRV1_U629.qqq)    -.1185         

(X_U1.X_UDRV1_U847.my5)    1.0000     (X_U1.X_UDRV1_U847.qbr)    1.0000         

(X_U1.X_UDRV1_U847.qqq)    -.0307     (X_U1.X_UDRV2_U629.my5)    1.0000         

(X_U1.X_UDRV2_U629.qbr)    1.0000     (X_U1.X_UDRV2_U629.qqq)    -.1185         

(X_U1.X_UDRV2_U847.my5)    1.0000     (X_U1.X_UDRV2_U847.qbr)    1.0000         

(X_U1.X_UDRV2_U847.qqq)    -.0307     (X_U1.U5_COUNTER1_RESET)    0.0000        

(X_U1.U5_COUNTER2_RESET)    0.0000    (X_U1.X_U18_U143.reset2)    0.0000        

(X_U1.X_U2_U634.x3.YINT)    1.0000    (X_U1.X_U4_U690.x3.YINT)    1.0000        

(X_U1.X_U5_U3_U618.YINT)    0.0000    (X_U1.X_U5_U4_U618.YINT)    0.0000        

(X_U1.X_U5_U640.x3.YINT)    1.0000    (X_U1.X_U5_U641.x3.YINT)    1.0000        

(X_U1.X_U98_U143.reset2)    0.0000    (X_U1.X_UCLK1_U131.Yint)    0.0000        

(X_U1.X_UCLK1_U145.YINT)    1.0000    (X_U1.X_UCLK1_U146.YINT)    1.0000        

(X_U1.X_UCLK1_U678.Yint)    0.0000    (X_U1.X_UCLK1_U679.Yint)    0.0000        

(X_U1.X_UCLK1_U685.YINT)    1.0000    (X_U1.X_UCLK1_U690.YINT)    1.0000        

(X_U1.X_UCLK1_U691.YINT)    1.0000    (X_U1.X_UCLK1_U695.YINT)    0.0000        

(X_U1.X_UCLK1_U698.YINT)    1.0000    (X_U1.X_UCLK1_U699.YINT)    0.0000        

(X_U1.X_UCLK1_U703.YINT)    0.0000    (X_U1.X_UCLK1_U704.qint)    -.0803        

(X_U1.X_UCLK1_U705.YINT)    0.0000    (X_U1.X_UCLK1_U706.YINT)    0.0000        

(X_U1.X_UCLK1_U708.YINT)    1.0000    (X_U1.X_UCLK1_U713.YINT)    1.0000        

(X_U1.X_UCLK1_U714.YINT)    0.0000    (X_U1.X_UCLK1_U715.YINT)    0.0000        

(X_U1.X_UCLK1_U716.qint)    -.3435    (X_U1.X_UCLK1_U836.YINT)    1.0000        

(X_U1.X_UCLK1_U837.YINT)    0.0000    (X_U1.X_UCLK1_U838.qint)    -.0638        

(X_U1.X_UCLK1_U839.YINT)    0.0000    (X_U1.X_UCLK2_U131.Yint)    0.0000        

(X_U1.X_UCLK2_U132.Yint)    1.0000    (X_U1.X_UCLK2_U133.Yint)    0.0000        

(X_U1.X_UCLK2_U145.YINT)    0.0000    (X_U1.X_UCLK2_U146.YINT)    1.0000        

(X_U1.X_UCLK2_U678.Yint)    0.0000    (X_U1.X_UCLK2_U679.Yint)    0.0000        

(X_U1.X_UCLK2_U685.YINT)    0.0000    (X_U1.X_UCLK2_U690.YINT)    1.0000        

(X_U1.X_UCLK2_U691.YINT)    1.0000    (X_U1.X_UCLK2_U695.YINT)    0.0000        

(X_U1.X_UCLK2_U698.YINT)    1.0000    (X_U1.X_UCLK2_U699.YINT)    0.0000        

(X_U1.X_UCLK2_U705.YINT)    0.0000    (X_U1.X_UCLK2_U708.YINT)    0.0000        

(X_U1.X_UCLK2_U713.YINT)    1.0000    (X_U1.X_UCLK2_U714.YINT)    0.0000        

(X_U1.X_UCLK2_U716.qint)    -.1185    (X_U1.X_UCLK2_U717.YINT)    1.0000        

(X_U1.X_UCLK2_U718.qint)    -.0528    (X_U1.X_UCLK2_U836.YINT)    1.0000        

(X_U1.X_UCLK2_U837.YINT)    0.0000    (X_U1.X_UCLK2_U838.qint)    -.0528        

(X_U1.X_UCLK2_U839.YINT)    0.0000    (X_U1.X_UDRV1_U629.qint)    -.1185        

(X_U1.X_UDRV1_U825.YINT)    0.0000    (X_U1.X_UDRV1_U827.YINT)    0.0000        

(X_U1.X_UDRV1_U828.YINT)    1.0000    (X_U1.X_UDRV1_U835.YINT)    1.0000        

(X_U1.X_UDRV1_U841.YINT)    0.0000    (X_U1.X_UDRV1_U842.YINT)    0.0000        

(X_U1.X_UDRV1_U847.qint)    -.0307    (X_U1.X_UDRV1_U848.INM1)     .1834        

(X_U1.X_UDRV1_U848.INP1)    0.0000    (X_U1.X_UDRV1_U848.INP2)    0.0000        

(X_U1.X_UDRV1_U849.YINT)    1.0000    (X_U1.X_UDRV2_U629.qint)    -.1185        

(X_U1.X_UDRV2_U825.YINT)    0.0000    (X_U1.X_UDRV2_U827.YINT)    0.0000        

(X_U1.X_UDRV2_U828.YINT)    1.0000    (X_U1.X_UDRV2_U835.YINT)    1.0000        

(X_U1.X_UDRV2_U841.YINT)    1.0000    (X_U1.X_UDRV2_U842.YINT)    0.0000        

(X_U1.X_UDRV2_U847.qint)    -.0307    (X_U1.X_UDRV2_U848.INM1)    1.2823        

(X_U1.X_UDRV2_U848.INP1)    0.0000    (X_U1.X_UDRV2_U848.INP2)    0.0000        

(X_U1.X_UDRV2_U849.YINT)    1.0000    (X_U1.X_U10_U1_U828.YINT)    1.0000       

(X_U1.X_U10_U2_U618.YINT)    0.0000   (X_U1.X_U10_U2_U620.YINT)    1.0000       

(X_U1.X_U10_U2_U621.YINT)    0.0000   (X_U1.X_U10_U3_U618.YINT)    0.0000       

(X_U1.X_U11_U634.x3.YINT)    0.0000   (X_U1.X_U13_U1_U828.YINT)    1.0000       

(X_U1.X_U13_U2_U618.YINT)    0.0000   (X_U1.X_U13_U2_U620.YINT)    1.0000       

(X_U1.X_U13_U2_U621.YINT)    0.0000   (X_U1.X_U13_U3_U618.YINT)    0.0000       

(X_U1.X_U14_U690.x3.YINT)    1.0000   (X_U1.X_U18_U144.x3.YINT)    1.0000       

(X_U1.X_U5_U3_U607.YINT1)    1.0000   (X_U1.X_U5_U3_U607.YINT2)    1.0000       

(X_U1.X_U5_U3_U607.YINT3)    0.0000   (X_U1.X_U5_U4_U607.YINT1)    1.0000       

(X_U1.X_U5_U4_U607.YINT2)    1.0000   (X_U1.X_U5_U4_U607.YINT3)    0.0000       

(X_U1.X_UCLK1_U704.myvss)    0.0000   (X_U1.X_UCLK1_U704.qqqd1)    0.0000       

(X_U1.X_UCLK1_U716.qqqd1)    0.0000   (X_U1.X_UCLK1_U838.myvss)    0.0000       

(X_U1.X_UCLK1_U838.qqqd1)     .0570   (X_U1.X_UCLK2_U716.myvss)    0.0000       

(X_U1.X_UCLK2_U716.qqqd1)    0.0000   (X_U1.X_UCLK2_U718.qqqd1)    0.0000       

(X_U1.X_UCLK2_U838.myvss)    0.0000   (X_U1.X_UCLK2_U838.qqqd1)    0.0000       

(X_U1.X_UDRV1_U629.myvss)    0.0000   (X_U1.X_UDRV1_U629.qqqd1)    0.0000       

(X_U1.X_UDRV1_U826.YINT1)    0.0000   (X_U1.X_UDRV1_U826.YINT2)    0.0000       

(X_U1.X_UDRV1_U826.YINT3)    1.0000   (X_U1.X_UDRV1_U847.myvss)    0.0000       

(X_U1.X_UDRV1_U847.qqqd1)    0.0000   (X_U1.X_UDRV2_U629.myvss)    0.0000       

(X_U1.X_UDRV2_U629.qqqd1)    0.0000   (X_U1.X_UDRV2_U826.YINT1)    0.0000       

(X_U1.X_UDRV2_U826.YINT2)    0.0000   (X_U1.X_UDRV2_U826.YINT3)    1.0000       

(X_U1.X_UDRV2_U847.myvss)    0.0000   (X_U1.X_UDRV2_U847.qqqd1)    0.0000       

(X_U1.X_U10_U2_U607.YINT1)    1.0000  (X_U1.X_U10_U2_U607.YINT2)    1.0000      

(X_U1.X_U10_U2_U607.YINT3)    0.0000  (X_U1.X_U10_U2_U608.YINT1)    0.0000      

(X_U1.X_U10_U2_U608.YINT2)    0.0000  (X_U1.X_U10_U2_U608.YINT3)    1.0000      

(X_U1.X_U10_U3_U607.YINT1)    1.0000  (X_U1.X_U10_U3_U607.YINT2)    1.0000      

(X_U1.X_U10_U3_U607.YINT3)    0.0000  (X_U1.X_U13_U2_U607.YINT1)    1.0000      

(X_U1.X_U13_U2_U607.YINT2)    1.0000  (X_U1.X_U13_U2_U607.YINT3)    0.0000      

(X_U1.X_U13_U2_U608.YINT1)    0.0000  (X_U1.X_U13_U2_U608.YINT2)    0.0000      

(X_U1.X_U13_U2_U608.YINT3)    1.0000  (X_U1.X_U13_U3_U607.YINT1)    1.0000      

(X_U1.X_U13_U3_U607.YINT2)    1.0000  (X_U1.X_U13_U3_U607.YINT3)    0.0000      

(X_U1.X_UCLK1_U716.clkdel)     .8857  (X_U1.X_UCLK1_U716.clkint)     .9757      

(X_U1.X_UCLK2_U718.clkdel)-165.1E-24  (X_U1.X_UCLK2_U718.clkint)    0.0000      

(X_U1.X_UCLK1_U704.x3.YINT)    0.0000 (X_U1.X_UCLK1_U716.clkdel1)     .0602     

(X_U1.X_UCLK1_U716.x1.YINT)    0.0000 (X_U1.X_UCLK1_U716.x2.YINT)    1.0000     

(X_U1.X_UCLK1_U838.x3.YINT)    0.0000 (X_U1.X_UCLK2_U716.x3.YINT)    0.0000     

(X_U1.X_UCLK2_U718.clkdel1)-7.611E-24 (X_U1.X_UCLK2_U718.x1.YINT)    0.0000     

(X_U1.X_UCLK2_U718.x2.YINT)    0.0000 (X_U1.X_UCLK2_U838.x3.YINT)    0.0000     

(X_U1.X_UDRV1_U629.x3.YINT)    0.0000 (X_U1.X_UDRV1_U847.x3.YINT)    0.0000     

(X_U1.X_UDRV2_U629.x3.YINT)    0.0000 (X_U1.X_UDRV2_U847.x3.YINT)    0.0000     

(X_U1.X_UCLK1_U716.x3.YINT1)    0.0000                                          

(X_U1.X_UCLK1_U716.x3.YINT2)    0.0000                                          

(X_U1.X_UCLK1_U716.x3.YINT3)    0.0000                                          

(X_U1.X_UCLK2_U718.x3.YINT1)    0.0000                                          

(X_U1.X_UCLK2_U718.x3.YINT2)    0.0000                                          

(X_U1.X_UCLK2_U718.x3.YINT3)    0.0000                   


  These voltages failed to converge:

    V(N00728)                 =     20.15V  \     15.69V
    V(N00724)                 =     20.15V  \     15.69V
    V(N00283)                 =     18.16V  \     15.69V
    V(N00287)                 =     18.16V  \     15.69V
    V(N00299)                 =     2.278V  \   500.00nV
    V(N00736)                 =     2.278V  \   499.99nV

  These supply currents failed to converge:

    I(X_U1.E_U2_E3)           =     9.90nA  \    549.47A
    I(X_U1.E_U11_E3)          =   -98.25pA  \   -549.47A
    I(X_U1.E_U14_E2)          =  -458.11nA  \   -2.040fA
    I(X_U1.E_U7_ABM7)         =    2.916pA  \    46.00uA
    I(X_U1.E_U7_ABM3)         =    40.02pA  \    41.84pA
    I(X_U1.E_U4_E2)           =   821.83nA  \    1.221fA
    I(L_L1)                   =    1.094mA  \    3.623uA
    I(L_L2)                   =   -1.953mA  \    3.623uA
    I(V_V1)                   =    -8.000A  \   -38.15uA
    I(V_V2)                   =   -7.813mA  \         0A
    I(X_U1.V_U2_V4)           =     9.90nA  \    549.47A
    I(X_U1.V_U11_V4)          =   -98.25pA  \   -549.47A
    I(X_U1.V_U98_V13)         =   -10.00mA  \   -1.512uA
    I(X_U1.V_UEA2_VCLAMP_LOW) =  -589.58fA  \   -99.99uA
    I(X_U1.V_U14_V10)         =  -458.11nA  \   -2.040fA
    I(X_U1.V_U97_V1)          =    -1.000A  \  -994.34mA
    I(X_U1.V_U4_V10)          =   821.83nA  \    1.221fA
    I(X_U1.V_UCLK1_V45)       =  -967.01nA  \  -985.46nA
    I(X_U1.V_UCLK2_V45)       =  -835.46nA  \  -854.22nA
    I(X_U1.V_UEA1_VCLAMP_LOW) =  -589.58fA  \  -100.00uA
    I(X_U1.X_U2_U634.v1)      =    1.680pA  \     5.000A
    I(X_U1.X_UDRV2_U629.v2)   =   -1.680pA  \    -5.000A
    I(X_U1.X_U14_U690.v1)     =    1.680pA  \     5.000A
    I(X_U1.X_U4_U690.v1)      =    1.680pA  \     5.000A
    I(X_U1.X_UCLK1_U704.v2)   =  -957.11fA  \   -19.58mA
    I(X_U1.X_UDRV1_U629.v2)   =   -1.680pA  \    -5.000A
    I(X_U1.X_UCLK2_U716.v2)   =   -1.680pA  \    -5.000A

  These devices failed to converge:
    X_U1.D_U98_D63 X_U1.D_U98_D62 X_U1.D_UEA2_D9 X_U1.D_U97_D1 X_U1.D_UEA1_D9 
    X_U1.X_U2_U634.d_d10 X_U1.X_UDRV2_U629.d_d11 X_U1.X_U14_U690.d_d10 
    X_U1.X_U4_U690.d_d10 X_U1.X_UCLK1_U704.d_d11 X_U1.X_UCLK1_U716.d_d11 
    X_U1.X_UDRV1_U629.d_d11 X_U1.X_UCLK2_U716.d_d11 M_M1      M_M3      

**** Interrupt ****
**** Param: RELTOL = 0.001
**** Param: ABSTOL = 1e-12
**** Param: VNTOL = 1e-06
**** Param: GMIN = 1e-12
**** Param: TSTOP = 3e-06
**** Param: TMAX = 0
**** Param: ITL1 = 150
**** Param: ITL2 = 20
**** Param: ITL4 = 100
**** Param: AutoConverge = 0
**** Param: AutoConverge.ITL1 = 1000
**** Param: AutoConverge.ITL2 = 1000
**** Param: AutoConverge.ITL4 = 1000
**** Param: AutoConverge.RELTOL = 0.05
**** Param: AutoConverge.ABSTOL = 0.001
**** Param: AutoConverge.VNTOL = 0.001
**** Param: AutoConverge.PIVTOL = 1e-10
**** Param: ADVCONV = 1
**** Param: Current_Simulation = 0
**** Param: METHOD = 0
**** Param: TRTOL = 7
**** Param: STEPGMIN = 0
**** Param: GMINSTEPS = 0
**** Param: ITL6 = 0
**** Param: NOSTEPDEP = 0
**** Param: PTRANSTEP = 0
**** Param: GMINSRC = 0
**** Param: PSEUDOTRAN = 0
**** Param: NOSTEPSRC = 0

ERROR -- Convergence problem in transient bias point calculation


  Last node voltages tried were:

 NODE   VOLTAGE     NODE   VOLTAGE     NODE   VOLTAGE     NODE   VOLTAGE


(   SS)    2.5598  (  FB1)     .1527  (  SW1)    3.0571  (  SW2)    3.0571      

(  VCC)     .6250  (  VIN)   17.5000  ( COMP)    1.0006  ( VDDA)    2.5000      

( VOUT)    3.0571  (N00268)    2.5000 (N00272)    3.0571 (N00283)    3.0571     

(N00287)    3.0571 (N00299) 790.3E-06 (N00303)    3.0571 (N00311)    0.0000     

(N00720)    3.0571 (N00724)    3.0571 (N00728)    3.0571 (N00736) 790.3E-06     

(N00744)    3.0571 (N00752)    0.0000 (N00772)     .0099 (N00776)     .4000     

(N04006)    1.0006 (N05504)    0.0000 (X_U1.DN)    0.0000                       

(X_U1.UP)    0.0000                   (X_U1.CLK)    0.0000                      

(X_U1.CLK2)    0.0000                 (X_U1.FPWM)     .5000                     

(X_U1.OVP1)    0.0000                 (X_U1.OVP2)    0.0000                     

(X_U1.PH11)    0.0000                 (X_U1.PH12)    0.0000                     

(X_U1.PH21)     .5000                 (X_U1.PH22)     .5000                     

(X_U1.CLKD1)    0.0000                (X_U1.CLKD2)    0.0000                    

(X_U1.CLKFB)    0.0000                (X_U1.ILIM1)    0.0000                    

(X_U1.ILIM2)    0.0000                (X_U1.ISWH1)     .1500                    

(X_U1.ISWH2)     .1500                (X_U1.SDWN1)    0.0000                    

(X_U1.SDWN2)    0.0000                (X_U1.VFBI1)     .1834                    

(X_U1.VFBI2)     .1834                (X_U1.VREF1)     .3000                    

(X_U1.VREF2)     .3000                (X_U1.CLKREF)     .5000                   

(X_U1.N73189)    0.0000               (X_U1.N75844)    0.0000                   

(X_U1.NORMAL)    0.0000               (X_U1.U10_PG)     .5000                   

(X_U1.U13_PG)     .5000               (X_U1.U19_VC) 1.589E-06                   

(X_U1.U4_ZCD)     .5000               (X_U1.U4_ZTH)     .1000                   

(X_U1.U7_VCC)     .6250               (X_U1.HICCUP1)    0.0000                  

(X_U1.HICCUP2)    0.0000              (X_U1.ISLOPE1)    1.0006                  

(X_U1.ISLOPE2)    1.0006              (X_U1.N148020)     .5000                  

(X_U1.N187506)     .5000              (X_U1.PLL_DIS)     .5000                  

(X_U1.U10_UVP)     .5000              (X_U1.U13_UVP)     .5000                  

(X_U1.U14_ZCD)     .5000              (X_U1.U14_ZTH)     .1000                  

(X_U1.U19_VCI) 7.906E-09              (X_U1.U4_LDRV)    0.0000                  

(X_U1.VINOK_B)    0.0000              (X_U1.CLK_SYNC)     .5000                 

(X_U1.H_BLNCK1)    0.0000             (X_U1.H_BLNCK2)    0.0000                 

(X_U1.L_BLNCK1)    0.0000             (X_U1.L_BLNCK2)    0.0000                 

(X_U1.U14_LDRV)    0.0000             (X_U1.U18_TONE)     .5000                 

(X_U1.U2_DISCH)    0.0000             (X_U1.U5_H_END)    0.0000                 

(X_U1.UCLK1_SR)     .5000             (X_U1.UCLK2_SR)     .5000                 

(X_U1.N16669093)     .5000            (X_U1.N16682465)     .5000                

(X_U1.N16783791)    1.0000            (X_U1.N16807997)     .5000                

(X_U1.N16811359)    0.0000            (X_U1.N16816902) 1.156E-06                

(X_U1.N16824422)     .5000            (X_U1.N16886382)     .5000                

(X_U1.N16916404)     .5000            (X_U1.PGOOD_EN1)     .5000                

(X_U1.PGOOD_EN2)     .5000            (X_U1.U10_OVP_N)     .5000                

(X_U1.U10_UVP_N)    0.0000            (X_U1.U11_DISCH)    0.0000                

(X_U1.U13_OVP_N)     .5000            (X_U1.U13_UVP_N)    0.0000                

(X_U1.U18_QB_DN)     .5000            (X_U1.U18_QB_UP)     .5000                

(X_U1.U18_QCLK1)    0.0000            (X_U1.U18_QCLK2)     .5000                

(X_U1.U2_N25555)    0.0000            (X_U1.U2_N67870)     .5558                

(X_U1.U2_N67984)    2.3750            (X_U1.U2_N68066)     .3668                

(X_U1.U2_N71046) 500.0E-09            (X_U1.U2_N72189)     .5000                

(X_U1.U2_N95734)     .5000            (X_U1.U4_N08357)    0.0000                

(X_U1.U4_N08485)     .5000            (X_U1.U4_N08737)     .5000                

(X_U1.U4_N09129)     .5000            (X_U1.U4_N09375)    0.0000                

(X_U1.U4_N09637)    0.0000            (X_U1.U4_N70409)     .5000                

(X_U1.U4_N85373)     .5000            (X_U1.U4_N86437)     .5000                

(X_U1.U5_COUNT1)    0.0000            (X_U1.U5_COUNT2)    0.0000                

(X_U1.U7_EN_OK1)     .5000            (X_U1.U7_EN_OK2)     .5000                

(X_U1.U7_VCC_OK)     .5000            (X_U1.U7_VIN_OK)     .5000                

(X_U1.UCLK1_VC1) 83.66E-12            (X_U1.UCLK1_VC2) 83.64E-12                

(X_U1.UCLK2_VC1)-1.073E-09            (X_U1.UCLK2_VC2)-1.073E-09                

(X_U1.VOUT1_3P3)    0.0000            (X_U1.U10_GLITCH)     .5000               

(X_U1.U10_TDELAY)     .5000           (X_U1.U10_TONMIN)     .5000               

(X_U1.U11_N17872)     .5000           (X_U1.U11_N37577)    0.0000               

(X_U1.U11_N75584)     .5558           (X_U1.U11_N75696)    2.3750               

(X_U1.U11_N75748)     .3668           (X_U1.U11_N75810) 500.0E-09               

(X_U1.U11_N75836)     .5000           (X_U1.U11_N96216)     .5000               

(X_U1.U13_GLITCH)     .5000           (X_U1.U13_TDELAY)     .5000               

(X_U1.U13_TONMIN)     .5000           (X_U1.U14_N08357)    0.0000               

(X_U1.U14_N08485)     .5000           (X_U1.U14_N08737)     .5000               

(X_U1.U14_N09129)     .5000           (X_U1.U14_N09375)    0.0000               

(X_U1.U14_N09637)    0.0000           (X_U1.U14_N70409)     .5000               

(X_U1.U14_N85373)     .5000           (X_U1.U14_N86437)     .5000               

(X_U1.U18_PLL_EN)    0.0000           (X_U1.U19_VDDBY2)    1.2500               

(X_U1.U4_N152364)     .5000           (X_U1.U5_N107511)    0.0000               

(X_U1.U5_N107542)    2.3750           (X_U1.U5_N107559)     .5000               

(X_U1.U5_N107566)    0.0000           (X_U1.U5_N133651)     .5000               

(X_U1.U5_N133661)    0.0000           (X_U1.U5_N146142)    0.0000               

(X_U1.U7_ENOK_B1)    0.0000           (X_U1.U7_ENOK_B2)    0.0000               

(X_U1.U7_VCCOK_B)    0.0000           (X_U1.U7_VCCX_OK)     .5000               

(X_U1.UCLK1_VDC3)    1.5000           (X_U1.UCLK1_VREF)     .6000               

(X_U1.UCLK2_VDC3)    1.5000           (X_U1.UCLK2_VREF)     .6000               

(X_U1.ULTRA_LOW1)    0.0000           (X_U1.ULTRA_LOW2)    0.0000               

(X_U1.CLK_INT_DIS)    0.0000          (X_U1.INTERLEAVED)     .5000              

(X_U1.SSCOMPLETE1)     .4662          (X_U1.SSCOMPLETE2)     .4662              

(X_U1.TIME_PERIOD) 79.11E-09          (X_U1.U14_N152364)     .5000              

(X_U1.U18_CLK1_PE)     .5000          (X_U1.U18_CLK2_PE)    0.0000              

(X_U1.U18_N183829)    0.0000          (X_U1.U18_N183909)     .5000              

(X_U1.U18_N184201)     .5000          (X_U1.U18_N184319)     .5000              

(X_U1.U18_N184411)     .5000          (X_U1.U18_N184513)     .5000              

(X_U1.U18_N187036)   16.0000          (X_U1.U18_N187496)     .5000              

(X_U1.U18_N187548)    0.0000          (X_U1.U18_RESET_B)    0.0000              

(X_U1.U19_N163174) 158.1E-18          (X_U1.U4_LDRV_INT)    0.0000              

(X_U1.U5_I_PULSE1)    0.0000          (X_U1.U5_I_PULSE2)    0.0000              

(X_U1.U98_RT_FREQ) 50.00E+03          (X_U1.UCLK1_RAMP1)  -37.9050              

(X_U1.UCLK1_VREF2)    1.2500          (X_U1.UCLK2_RAMP1)  -37.9050              

(X_U1.UCLK2_VREF2)    1.2500          (X_U1.UDRV1_PH1_1)    0.0000              

(X_U1.UDRV1_PH2_1)     .5000          (X_U1.UDRV2_PH1_1)    0.0000              

(X_U1.UDRV2_PH2_1)     .5000          (X_U1.X_U4_U693.1)     .5000              

(X_U1.X_U7_U613.1)     .5000          (X_U1.X_U7_U614.1)     .5000              

(X_U1.X_U7_U615.1)     .5000          (X_U1.X_U7_U620.1)     .5000              

(X_U1.X_U7_U627.1)     .5000          (X_U1.U14_LDRV_INT)    0.0000             

(X_U1.U2_N16784744)    0.0000         (X_U1.U2_N16784762)     .1542             

(X_U1.U2_N16785529)     .5000         (X_U1.U2_N16785551)     .0917             

(X_U1.U4_LDRV_INTB)     .5000         (X_U1.U4_N16790065)     .1500             

(X_U1.U4_N16837589)    0.0000         (X_U1.U4_N16837627)     .5000             

(X_U1.U4_N16877418)     .5000         (X_U1.U4_N16902652)     .1500             

(X_U1.U4_N16914282) 500.0E-09         (X_U1.U4_N16922955)     .2500             

(X_U1.U4_N16923004)     .2500         (X_U1.U5_HICCUP1_N)     .5000             

(X_U1.U5_HICCUP2_N)     .5000         (X_U1.U5_N16630382)    0.0000             

(X_U1.U5_N16648145)    0.0000         (X_U1.U5_N16652648)    0.0000             

(X_U1.U5_N16652652)    0.0000         (X_U1.U5_N16652662)  256.0000             

(X_U1.U5_N16652718)    0.0000         (X_U1.U5_N16652752)     .5000             

(X_U1.U5_N16652904)    0.0000         (X_U1.U5_N16661334)    0.0000             

(X_U1.U5_N16662055) 25.00E-15         (X_U1.U5_N16662059)    2.5000             

(X_U1.U5_N16664681)    0.0000         (X_U1.U5_N16665826)    2.0000             

(X_U1.U5_N16679698)    0.0000         (X_U1.U5_N16682119) 25.00E-15             

(X_U1.U5_N16682177)    0.0000         (X_U1.U5_N16682213)    0.0000             

(X_U1.U5_N16682227)    2.5000         (X_U1.U5_N16682325)    0.0000             

(X_U1.U5_N16682357)    2.0000         (X_U1.U5_N16683669)    0.0000             

(X_U1.U5_N16777867)    0.0000         (X_U1.U5_N16777884)  256.0000             

(X_U1.U5_N16777933)    0.0000         (X_U1.U5_N16777952)    0.0000             

(X_U1.U5_N16778004)     .6000         (X_U1.U5_N16778062)    0.0000             

(X_U1.U5_N16864724)     .5000         (X_U1.U5_U3_N04955)     .5000             

(X_U1.U5_U4_N04955)     .5000         (X_U1.U7_N16734802)     .0450             

(X_U1.U7_N16734846)    1.6000         (X_U1.U7_N16735008)     .6000             

(X_U1.U7_N16735086)    1.0000         (X_U1.U7_N16735276)     .0450             

(X_U1.U7_N16735320)    1.6500         (X_U1.U7_N16735430)    2.1500             

(X_U1.U7_N16735502)     .1000         (X_U1.U7_N16735566)    1.2500             

(X_U1.U7_N16747479)     .6000         (X_U1.U7_N16747493)    1.0000             

(X_U1.U7_N16772254)    8.7500         (X_U1.U7_N16781951)     .5000             

(X_U1.U7_N16784507)     .5000         (X_U1.UCLK1_ENSYNC)    0.0000             

(X_U1.X_U10_U613.1)     .5000         (X_U1.X_U10_U614.1)     .5000             

(X_U1.X_U13_U613.1)     .5000         (X_U1.X_U13_U614.1)     .5000             

(X_U1.X_U14_U693.1)     .5000         (X_U1.X_U2_U3.YINT)    0.0000             

(X_U1.X_U2_U5.YINT)    0.0000         (X_U1.X_U2_U6.YINT)    0.0000             

(X_U1.X_U5_U30.my5)     .5000         (X_U1.X_U5_U30.qbr)     .5000             

(X_U1.X_U5_U30.qqq) 501.0E-18         (X_U1.X_U5_U31.my5)     .5000             

(X_U1.X_U5_U31.qbr)     .5000         (X_U1.X_U5_U31.qqq) 501.0E-18             

(X_U1.X_U5_U639.ch)    0.0000         (X_U1.X_U5_U642.ch)    0.0000             

(X_U1.X_U98_U676.1)     .5000         (X_U1.U10_N16625533)     .0102            

(X_U1.U10_N16626981)     .0102        (X_U1.U10_N16627165)     .3300            

(X_U1.U10_N16787180)     .2760        (X_U1.U10_N16799779)    0.0000            

(X_U1.U10_N16803363)    0.0000        (X_U1.U10_N16805765)     .5000            

(X_U1.U10_U1_N02680)     .5000        (X_U1.U10_U2_N00140)     .5000            

(X_U1.U10_U2_N00220)    0.0000        (X_U1.U10_U2_N00780)     .5000            

(X_U1.U10_U2_N02470)     .5000        (X_U1.U10_U2_N03610)    0.0000            

(X_U1.U10_U3_N04955)    0.0000        (X_U1.U11_CHOOSE3P3)    0.0000            

(X_U1.U11_N16784744)    0.0000        (X_U1.U11_N16784762)     .1542            

(X_U1.U11_N16785549)     .0917        (X_U1.U13_N16625533)     .0102            

(X_U1.U13_N16626981)     .0102        (X_U1.U13_N16627165)     .3300            

(X_U1.U13_N16787180)     .2760        (X_U1.U13_N16799779)    0.0000            

(X_U1.U13_N16803363)    0.0000        (X_U1.U13_N16805765)     .5000            

(X_U1.U13_U1_N02680)     .5000        (X_U1.U13_U2_N00140)     .5000            

(X_U1.U13_U2_N00220)    0.0000        (X_U1.U13_U2_N00780)     .5000            

(X_U1.U13_U2_N02470)     .5000        (X_U1.U13_U2_N03610)    0.0000            

(X_U1.U13_U3_N04955)    0.0000        (X_U1.U14_LDRV_INTB)     .5000            

(X_U1.U14_N16790065)     .1500        (X_U1.U14_N16837589)    0.0000            

(X_U1.U14_N16837627)     .5000        (X_U1.U14_N16877418)     .5000            

(X_U1.U14_N16902652)     .1500        (X_U1.U14_N16914282) 500.0E-09            

(X_U1.U14_N16922955)     .2500        (X_U1.U14_N16923004)     .2500            

(X_U1.U18_DISCHARGE)    0.0000        (X_U1.U18_PLL_COUNT)   15.9300            

(X_U1.U2_ADJ_DETECT)     .5000        (X_U1.U2_CHOOSE_ADJ)     .0763            

(X_U1.U97_N16773228)    8.0000        (X_U1.U97_N16779114)    8.0000            

(X_U1.U97_N16785670)    0.0000        (X_U1.U97_N16786708)    0.0000            

(X_U1.U97_N16788036)    0.0000        (X_U1.U97_ULTRA_LOW)    0.0000            

(X_U1.U98_N16769147)    1.0000        (X_U1.U98_N16769333)     .6000            

(X_U1.U98_N16776010) 6.002E-15        (X_U1.U98_N16776592)     .6000            

(X_U1.U98_N16777841) 476.1E-30        (X_U1.U98_N16783053) 30.00E+03            

(X_U1.U98_N16784765) 20.00E+03        (X_U1.U98_N16785649)    0.0000            

(X_U1.U98_N16785854)     .5000        (X_U1.U98_N16804679)     .5000            

(X_U1.U98_N16804691)     .0100        (X_U1.U98_N16804696)     .5000            

(X_U1.U98_N16807781)     .5000        (X_U1.U98_SYNC_FREQ) 1.500E+06            

(X_U1.U99_N16774936)     .4000        (X_U1.UCLK1_CLK_INT)    0.0000            

(X_U1.UCLK1_FAKEPWM)    0.0000        (X_U1.UCLK1_N105129)    0.0000            

(X_U1.UCLK1_N105603)     .5000        (X_U1.UCLK1_N142689)     .5000            

(X_U1.UCLK1_N142694)    0.0000        (X_U1.UCLK1_N143410)    0.0000            

(X_U1.UCLK1_N148013)     .5000        (X_U1.UCLK1_TIMEBY4)    0.0000            

(X_U1.UCLK2_CLK_INT)    0.0000        (X_U1.UCLK2_FAKEPWM)    0.0000            

(X_U1.UCLK2_N105129)    0.0000        (X_U1.UCLK2_N105603)     .5000            

(X_U1.UCLK2_N142689)     .5000        (X_U1.UCLK2_N142694)    0.0000            

(X_U1.UCLK2_TIMEBY4)    0.0000        (X_U1.UDRV1_PREBIAS)     .5000            

(X_U1.UDRV2_PREBIAS)     .5000        (X_U1.UEA2_COMP_INT)    1.0006            

(X_U1.X_U11_U3.YINT)    0.0000        (X_U1.X_U11_U5.YINT)    0.0000            

(X_U1.X_U11_U6.YINT)    0.0000        (X_U1.X_U18_U1.YINT)    0.0000            

(X_U1.X_U18_U143.ch)    0.0000        (X_U1.X_U18_U2.YINT)     .5000            

(X_U1.X_U18_U3.YINT)    0.0000        (X_U1.X_U18_U4.YINT)     .5000            

(X_U1.X_U18_U5.YINT)     .5000        (X_U1.X_U18_U6.YINT)    0.0000            

(X_U1.X_U18_U7.YINT)     .5000        (X_U1.X_U18_U8.YINT)     .5000            

(X_U1.X_U18_U9.YINT)     .5000        (X_U1.X_U2_U634.my5)     .5000            

(X_U1.X_U2_U634.qbr)     .5000        (X_U1.X_U2_U634.qqq)     .0025            

(X_U1.X_U4_U690.my5)     .5000        (X_U1.X_U4_U690.qbr)     .5000            

(X_U1.X_U4_U690.qqq)     .0025        (X_U1.X_U5_U30.qint) 1.002E-15            

(X_U1.X_U5_U31.qint) 1.002E-15        (X_U1.X_U5_U640.my5)     .5000            

(X_U1.X_U5_U640.qbr)     .5000        (X_U1.X_U5_U640.qqq) 501.0E-18            

(X_U1.X_U5_U641.my5)     .5000        (X_U1.X_U5_U641.qbr)     .5000            

(X_U1.X_U5_U641.qqq) 501.0E-18        (X_U1.X_U97_U1.Yint)    0.0000            

(X_U1.X_U97_U2.Yint)    0.0000        (X_U1.X_U97_U4.YINT)    0.0000            

(X_U1.X_U97_U5.YINT)    0.0000        (X_U1.X_U97_U6.YINT)    0.0000            

(X_U1.X_U97_U7.YINT)    0.0000        (X_U1.X_U97_U8.YINT)    0.0000            

(X_U1.X_U98_U143.ch)     .5000        (X_U1.U11_ADJ_DETECT)    0.0000           

(X_U1.U11_CHOOSE_ADJ)    0.0000       (X_U1.U4_L_BLNCK_DCM)     .5000           

(X_U1.UCLK1_SLOPE_CH)    0.0000       (X_U1.UCLK2_SLOPE_CH)    0.0000           

(X_U1.UDRV1_CSASLOPE)     .5753       (X_U1.UDRV2_CSASLOPE)     .5753           

(X_U1.UEA1_N16743331)    1.0000       (X_U1.UEA1_N16743581)    0.0000           

(X_U1.UEA1_N16743799)    -.0100       (X_U1.UEA2_N16743331)    1.0000           

(X_U1.UEA2_N16743581)    0.0000       (X_U1.UEA2_N16743799)    -.0100           

(X_U1.X_U11_U634.my5)     .5000       (X_U1.X_U11_U634.qbr)     .5000           

(X_U1.X_U11_U634.qqq) 501.0E-18       (X_U1.X_U14_U690.my5)     .5000           

(X_U1.X_U14_U690.qbr)     .5000       (X_U1.X_U14_U690.qqq)     .0025           

(X_U1.X_U18_U144.my5)     .5000       (X_U1.X_U18_U144.qbr)     .5000           

(X_U1.X_U18_U144.qqq) 500.4E-18       (X_U1.X_U18_U22.YINT)    0.0000           

(X_U1.X_U18_U23.YINT)     .5000       (X_U1.X_U18_U24.YINT)     .5000           

(X_U1.X_U18_U25.YINT)     .5000       (X_U1.X_U18_U28.YINT)     .5000           

(X_U1.X_U2_U626.YINT)     .0763       (X_U1.X_U2_U627.Yint)    0.0000           

(X_U1.X_U2_U630.YINT)     .1834       (X_U1.X_U2_U631.Yint)     .5000           

(X_U1.X_U2_U633.Yint)     .5000       (X_U1.X_U2_U634.qint)     .0050           

(X_U1.X_U4_U612.YINT)    0.0000       (X_U1.X_U4_U613.YINT)    0.0000           

(X_U1.X_U4_U648.YINT)     .5000       (X_U1.X_U4_U650.YINT)     .5000           

(X_U1.X_U4_U651.YINT)     .5000       (X_U1.X_U4_U652.YINT)     .5000           

(X_U1.X_U4_U653.YINT)     .5000       (X_U1.X_U4_U655.YINT)     .5000           

(X_U1.X_U4_U657.YINT)     .5000       (X_U1.X_U4_U685.YINT)     .5000           

(X_U1.X_U4_U687.YINT)    0.0000       (X_U1.X_U4_U688.YINT)     .5000           

(X_U1.X_U4_U690.qint)     .0050       (X_U1.X_U4_U691.YINT)    0.0000           

(X_U1.X_U4_U692.YINT)    0.0000       (X_U1.X_U4_U693.INM1)   -1.4786           

(X_U1.X_U4_U693.INP1)    0.0000       (X_U1.X_U4_U693.INP2) 250.0E-09           

(X_U1.X_U5_U30.myvss)    0.0000       (X_U1.X_U5_U30.qqqd1)    0.0000           

(X_U1.X_U5_U31.myvss)    0.0000       (X_U1.X_U5_U31.qqqd1)    0.0000           

(X_U1.X_U5_U608.YINT)    0.0000       (X_U1.X_U5_U609.Yint)    0.0000           

(X_U1.X_U5_U612.Yint)    0.0000       (X_U1.X_U5_U613.YINT)    0.0000           

(X_U1.X_U5_U615.YINT)    0.0000       (X_U1.X_U5_U616.Yint)    0.0000           

(X_U1.X_U5_U617.YINT)    0.0000       (X_U1.X_U5_U618.Yint)    0.0000           

(X_U1.X_U5_U619.Yint)    0.0000       (X_U1.X_U5_U629.Yint)     .5000           

(X_U1.X_U5_U630.YINT)    0.0000       (X_U1.X_U5_U631.YINT)    0.0000           

(X_U1.X_U5_U632.YINT)    0.0000       (X_U1.X_U5_U633.YINT)    0.0000           

(X_U1.X_U5_U634.YINT)    0.0000       (X_U1.X_U5_U637.YINT)    0.0000           

(X_U1.X_U5_U638.YINT)    0.0000       (X_U1.X_U5_U639.meas)    0.0000           

(X_U1.X_U5_U640.qint) 1.002E-15       (X_U1.X_U5_U641.qint) 1.002E-15           

(X_U1.X_U5_U642.meas)    0.0000       (X_U1.X_U7_U613.INM1)   -7.9500           

(X_U1.X_U7_U613.INP1)    0.0000       (X_U1.X_U7_U613.INP2)     .0225           

(X_U1.X_U7_U614.INM1)   -8.2500       (X_U1.X_U7_U614.INP1)    0.0000           

(X_U1.X_U7_U614.INP2)     .3000       (X_U1.X_U7_U615.INM1)   -7.9250           

(X_U1.X_U7_U615.INP1)    0.0000       (X_U1.X_U7_U615.INP2)     .0225           

(X_U1.X_U7_U616.YINT)    0.0000       (X_U1.X_U7_U618.YINT)    0.0000           

(X_U1.X_U7_U620.INM1)    -.1750       (X_U1.X_U7_U620.INP1)    0.0000           

(X_U1.X_U7_U620.INP2)     .0500       (X_U1.X_U7_U621.YINT)    1.2500           

(X_U1.X_U7_U624.YINT)    0.0000       (X_U1.X_U7_U626.YINT)    8.7500           

(X_U1.X_U7_U627.INM1)   -8.2500       (X_U1.X_U7_U627.INP1)    0.0000           

(X_U1.X_U7_U627.INP2)     .3000       (X_U1.X_U7_U629.YINT)    0.0000           

(X_U1.X_U7_U630.YINT)    0.0000       (X_U1.X_U7_U631.YINT)    0.0000           

(X_U1.X_UDRV1_U848.1)     .5000       (X_U1.X_UDRV2_U848.1)     .5000           

(X_U1.X_UEA1_U1.YINT)    0.0000       (X_U1.X_UEA2_U1.YINT)    0.0000           

(X_U1.U14_L_BLNCK_DCM)     .5000      (X_U1.U4_L_BLNCK_FPWM)    0.0000          

(X_U1.U97_16PWM_RAMP1) 80.00E-15      (X_U1.U97_16PWM_RAMP2) 80.00E-15          

(X_U1.UCLK1_CLKEXTEND)    0.0000      (X_U1.UCLK1_DISCHARGE)    0.0000          

(X_U1.UCLK1_N16748920)    1.0000      (X_U1.UCLK1_N16748938)    0.0000          

(X_U1.UCLK1_N16750120)    0.0000      (X_U1.UCLK1_N16802829)    0.0000          

(X_U1.UCLK1_N16910733)     .5000      (X_U1.UCLK1_N16913784)    0.0000          

(X_U1.UCLK1_N16941463)    0.0000      (X_U1.UCLK1_N16941559)     .5000          

(X_U1.UCLK1_N16941562)     .5000      (X_U1.UCLK2_CLKEXTEND)    0.0000          

(X_U1.UCLK2_DISCHARGE)    0.0000      (X_U1.UCLK2_N16748920)    1.0000          

(X_U1.UCLK2_N16748938)    0.0000      (X_U1.UCLK2_N16750120)    0.0000          

(X_U1.UCLK2_N16778810)     .3000      (X_U1.UCLK2_N16780211)    0.0000          

(X_U1.UCLK2_N16780801)     .3000      (X_U1.UCLK2_N16795843)    0.0000          

(X_U1.UCLK2_N16796127)     .5000      (X_U1.UCLK2_N16824360)    0.0000          

(X_U1.UCLK2_N16824391)    0.0000      (X_U1.UCLK2_N16824411)    0.0000          

(X_U1.UCLK2_N16833602)    0.0000      (X_U1.UCLK2_N16833698)     .5000          

(X_U1.UCLK2_N16833701)     .5000      (X_U1.UDRV1_N16757820)    0.0000          

(X_U1.UDRV1_N16757826)    0.0000      (X_U1.UDRV1_N16757852)    0.0000          

(X_U1.UDRV1_N16758148)     .5000      (X_U1.UDRV1_N16761308)    0.0000          

(X_U1.UDRV1_N16761314)    0.0000      (X_U1.UDRV1_N16761336)     .5000          

(X_U1.UDRV1_N16762313)    0.0000      (X_U1.UDRV1_N16762321)     .5000          

(X_U1.UDRV1_N16764046)     .5000      (X_U1.UDRV1_N16778236)    1.1506          

(X_U1.UDRV1_N16781726)     .5880      (X_U1.UDRV1_N16805723) 500.0E-06          

(X_U1.UDRV1_N16812981)    0.0000      (X_U1.UDRV2_N16757820)    0.0000          

(X_U1.UDRV2_N16757826)    0.0000      (X_U1.UDRV2_N16757852)    0.0000          

(X_U1.UDRV2_N16758148)     .5000      (X_U1.UDRV2_N16761308)    0.0000          

(X_U1.UDRV2_N16761314)    0.0000      (X_U1.UDRV2_N16761336)     .5000          

(X_U1.UDRV2_N16762313)    0.0000      (X_U1.UDRV2_N16762321)     .5000          

(X_U1.UDRV2_N16764046)     .5000      (X_U1.UDRV2_N16778236)    1.1506          

(X_U1.UDRV2_N16781726)     .5880      (X_U1.UDRV2_N16805723) 500.0E-06          

(X_U1.UDRV2_N16812981)    0.0000      (X_U1.X_U10_U613.INM1)    -.0463          

(X_U1.X_U10_U613.INP1)    0.0000      (X_U1.X_U10_U613.INP2)     .0051          

(X_U1.X_U10_U614.INM1)    -.0733      (X_U1.X_U10_U614.INP1)    0.0000          

(X_U1.X_U10_U614.INP2)     .0051      (X_U1.X_U10_U616.YINT)    0.0000          

(X_U1.X_U10_U617.YINT)    0.0000      (X_U1.X_U10_U618.YINT)     .5000          

(X_U1.X_U11_U626.YINT)    0.0000      (X_U1.X_U11_U627.Yint)    0.0000          

(X_U1.X_U11_U630.YINT)     .1834      (X_U1.X_U11_U631.Yint)    0.0000          

(X_U1.X_U11_U633.Yint)     .5000      (X_U1.X_U11_U634.qint) 1.002E-15          

(X_U1.X_U13_U613.INM1)    -.0463      (X_U1.X_U13_U613.INP1)    0.0000          

(X_U1.X_U13_U613.INP2)     .0051      (X_U1.X_U13_U614.INM1)    -.0733          

(X_U1.X_U13_U614.INP1)    0.0000      (X_U1.X_U13_U614.INP2)     .0051          

(X_U1.X_U13_U616.YINT)    0.0000      (X_U1.X_U13_U617.YINT)    0.0000          

(X_U1.X_U13_U618.YINT)     .5000      (X_U1.X_U14_U612.YINT)    0.0000          

(X_U1.X_U14_U613.YINT)    0.0000      (X_U1.X_U14_U648.YINT)     .5000          

(X_U1.X_U14_U650.YINT)     .5000      (X_U1.X_U14_U651.YINT)     .5000          

(X_U1.X_U14_U652.YINT)     .5000      (X_U1.X_U14_U653.YINT)     .5000          

(X_U1.X_U14_U655.YINT)     .5000      (X_U1.X_U14_U657.YINT)     .5000          

(X_U1.X_U14_U685.YINT)     .5000      (X_U1.X_U14_U687.YINT)    0.0000          

(X_U1.X_U14_U688.YINT)     .5000      (X_U1.X_U14_U690.qint)     .0050          

(X_U1.X_U14_U691.YINT)    0.0000      (X_U1.X_U14_U692.YINT)    0.0000          

(X_U1.X_U14_U693.INM1)   -1.4786      (X_U1.X_U14_U693.INP1)    0.0000          

(X_U1.X_U14_U693.INP2) 250.0E-09      (X_U1.X_U18_U143.meas)     .0245          

(X_U1.X_U18_U144.qint) 1.001E-15      (X_U1.X_U18_U145.YINT)    0.0000          

(X_U1.X_U18_U27.YINT1)     .5000      (X_U1.X_U18_U27.YINT2)     .5000          

(X_U1.X_U18_U27.YINT3)    0.0000      (X_U1.X_U18_U29.YINT1)     .5000          

(X_U1.X_U18_U29.YINT2)     .5000      (X_U1.X_U18_U29.YINT3)    0.0000          

(X_U1.X_U18_U30.YINT1)     .5000      (X_U1.X_U18_U30.YINT2)     .5000          

(X_U1.X_U18_U30.YINT3)    0.0000      (X_U1.X_U2_U634.myvss)    0.0000          

(X_U1.X_U2_U634.qqqd1)    0.0000      (X_U1.X_U4_U690.myvss)    0.0000          

(X_U1.X_U4_U690.qqqd1)    0.0000      (X_U1.X_U5_U607.YINT1)    0.0000          

(X_U1.X_U5_U607.YINT2)    0.0000      (X_U1.X_U5_U607.YINT3)     .5000          

(X_U1.X_U5_U610.YINT1)    0.0000      (X_U1.X_U5_U610.YINT2)    0.0000          

(X_U1.X_U5_U610.YINT3)     .5000      (X_U1.X_U5_U611.YINT1)     .5000          

(X_U1.X_U5_U611.YINT2)     .5000      (X_U1.X_U5_U611.YINT3)    0.0000          

(X_U1.X_U5_U614.YINT1)    0.0000      (X_U1.X_U5_U614.YINT2)    0.0000          

(X_U1.X_U5_U614.YINT3)     .5000      (X_U1.X_U5_U639.reset)     .5000          

(X_U1.X_U5_U640.myvss)    0.0000      (X_U1.X_U5_U640.qqqd1)    0.0000          

(X_U1.X_U5_U641.myvss)    0.0000      (X_U1.X_U5_U641.qqqd1)    0.0000          

(X_U1.X_U5_U642.reset)     .5000      (X_U1.X_U98_U143.meas)     .5000          

(X_U1.X_U98_U676.INM1)    -.7500      (X_U1.X_U98_U676.INP1)    0.0000          

(X_U1.X_U98_U676.INP2)     .3000      (X_U1.X_U98_U677.Yint)     .5000          

(X_U1.X_U98_U678.Yint)    0.0000      (X_U1.X_U98_U679.Yint)     .5000          

(X_U1.X_U98_U680.YINT)    0.0000      (X_U1.X_UDRV1_U5.Yint)    0.0000          

(X_U1.X_UDRV1_U6.Yint)    0.0000      (X_U1.X_UDRV2_U5.Yint)    0.0000          

(X_U1.X_UDRV2_U6.Yint)    0.0000      (X_U1.U14_L_BLNCK_FPWM)    0.0000         

(X_U1.U97_16PWM_COUNT1)    0.0000     (X_U1.U97_16PWM_COUNT2)    0.0000         

(X_U1.UCLK1_DISCHARGEB)     .5000     (X_U1.UCLK2_DISCHARGEB)     .5000         

(X_U1.UCLK2_SYNCCLKOUT)     .5000     (X_U1.X_U11_U634.myvss)    0.0000         

(X_U1.X_U11_U634.qqqd1)    0.0000     (X_U1.X_U14_U690.myvss)    0.0000         

(X_U1.X_U14_U690.qqqd1)    0.0000     (X_U1.X_U18_U143.reset)    0.0000         

(X_U1.X_U18_U144.myvss)    0.0000     (X_U1.X_U18_U144.qqqd1)    0.0000         

(X_U1.X_U5_U30.x3.YINT)    0.0000     (X_U1.X_U5_U31.x3.YINT)    0.0000         

(X_U1.X_U5_U639.reset2)     .5000     (X_U1.X_U5_U642.reset2)     .5000         

(X_U1.X_U98_U143.reset)    0.0000     (X_U1.X_UCLK1_U704.my5)     .5000         

(X_U1.X_UCLK1_U704.qbr)     .5000     (X_U1.X_UCLK1_U704.qqq)    -.0025         

(X_U1.X_UCLK1_U716.my5)    2.5000     (X_U1.X_UCLK1_U716.qbr)     .5000         

(X_U1.X_UCLK1_U716.qqq) 2.501E-15     (X_U1.X_UCLK1_U838.my5)     .5000         

(X_U1.X_UCLK1_U838.qbr)     .5000     (X_U1.X_UCLK1_U838.qqq)    -.0025         

(X_U1.X_UCLK2_U716.my5)    1.0000     (X_U1.X_UCLK2_U716.qbr)    1.0000         

(X_U1.X_UCLK2_U716.qqq)    -.0025     (X_U1.X_UCLK2_U718.my5)    2.5000         

(X_U1.X_UCLK2_U718.qbr)     .5000     (X_U1.X_UCLK2_U718.qqq) 2.501E-15         

(X_U1.X_UCLK2_U838.my5)     .5000     (X_U1.X_UCLK2_U838.qbr)     .5000         

(X_U1.X_UCLK2_U838.qqq) 501.0E-18     (X_U1.X_UDRV1_U629.my5)     .5000         

(X_U1.X_UDRV1_U629.qbr)     .5000     (X_U1.X_UDRV1_U629.qqq) 501.0E-18         

(X_U1.X_UDRV1_U847.my5)     .5000     (X_U1.X_UDRV1_U847.qbr)     .5000         

(X_U1.X_UDRV1_U847.qqq)    -.0025     (X_U1.X_UDRV2_U629.my5)     .5000         

(X_U1.X_UDRV2_U629.qbr)     .5000     (X_U1.X_UDRV2_U629.qqq) 501.0E-18         

(X_U1.X_UDRV2_U847.my5)     .5000     (X_U1.X_UDRV2_U847.qbr)     .5000         

(X_U1.X_UDRV2_U847.qqq)    -.0025     (X_U1.U5_COUNTER1_RESET)    0.0000        

(X_U1.U5_COUNTER2_RESET)    0.0000    (X_U1.X_U18_U143.reset2)    0.0000        

(X_U1.X_U2_U634.x3.YINT)    0.0000    (X_U1.X_U4_U690.x3.YINT)    0.0000        

(X_U1.X_U5_U3_U618.YINT)    0.0000    (X_U1.X_U5_U4_U618.YINT)    0.0000        

(X_U1.X_U5_U640.x3.YINT)    0.0000    (X_U1.X_U5_U641.x3.YINT)    0.0000        

(X_U1.X_U98_U143.reset2)    0.0000    (X_U1.X_UCLK1_U131.Yint)    0.0000        

(X_U1.X_UCLK1_U145.YINT)    0.0000    (X_U1.X_UCLK1_U146.YINT)     .5000        

(X_U1.X_UCLK1_U678.Yint)    0.0000    (X_U1.X_UCLK1_U679.Yint)    0.0000        

(X_U1.X_UCLK1_U685.YINT)    0.0000    (X_U1.X_UCLK1_U690.YINT)     .5000        

(X_U1.X_UCLK1_U691.YINT)     .5000    (X_U1.X_UCLK1_U695.YINT)    0.0000        

(X_U1.X_UCLK1_U698.YINT)     .5000    (X_U1.X_UCLK1_U699.YINT)    0.0000        

(X_U1.X_UCLK1_U703.YINT)     .5000    (X_U1.X_UCLK1_U704.qint)    -.0050        

(X_U1.X_UCLK1_U705.YINT)    0.0000    (X_U1.X_UCLK1_U706.YINT)    0.0000        

(X_U1.X_UCLK1_U708.YINT)    0.0000    (X_U1.X_UCLK1_U713.YINT)     .5000        

(X_U1.X_UCLK1_U714.YINT)    0.0000    (X_U1.X_UCLK1_U715.YINT)    0.0000        

(X_U1.X_UCLK1_U716.qint) 5.002E-15    (X_U1.X_UCLK1_U836.YINT)     .5000        

(X_U1.X_UCLK1_U837.YINT)     .5000    (X_U1.X_UCLK1_U838.qint)    -.0050        

(X_U1.X_UCLK1_U839.YINT)    0.0000    (X_U1.X_UCLK2_U131.Yint)    0.0000        

(X_U1.X_UCLK2_U132.Yint)    0.0000    (X_U1.X_UCLK2_U133.Yint)    0.0000        

(X_U1.X_UCLK2_U145.YINT)    0.0000    (X_U1.X_UCLK2_U146.YINT)     .5000        

(X_U1.X_UCLK2_U678.Yint)    0.0000    (X_U1.X_UCLK2_U679.Yint)    0.0000        

(X_U1.X_UCLK2_U685.YINT)    0.0000    (X_U1.X_UCLK2_U690.YINT)     .5000        

(X_U1.X_UCLK2_U691.YINT)     .5000    (X_U1.X_UCLK2_U695.YINT)    0.0000        

(X_U1.X_UCLK2_U698.YINT)     .5000    (X_U1.X_UCLK2_U699.YINT)    0.0000        

(X_U1.X_UCLK2_U705.YINT)    0.0000    (X_U1.X_UCLK2_U708.YINT)    0.0000        

(X_U1.X_UCLK2_U713.YINT)     .5000    (X_U1.X_UCLK2_U714.YINT)    0.0000        

(X_U1.X_UCLK2_U716.qint)    -.0050    (X_U1.X_UCLK2_U717.YINT)     .5000        

(X_U1.X_UCLK2_U718.qint) 5.002E-15    (X_U1.X_UCLK2_U836.YINT)     .5000        

(X_U1.X_UCLK2_U837.YINT)    0.0000    (X_U1.X_UCLK2_U838.qint) 1.002E-15        

(X_U1.X_UCLK2_U839.YINT)    0.0000    (X_U1.X_UDRV1_U629.qint) 1.002E-15        

(X_U1.X_UDRV1_U825.YINT)    0.0000    (X_U1.X_UDRV1_U827.YINT)    0.0000        

(X_U1.X_UDRV1_U828.YINT)     .5000    (X_U1.X_UDRV1_U835.YINT)     .5000        

(X_U1.X_UDRV1_U841.YINT)     .5000    (X_U1.X_UDRV1_U842.YINT)    0.0000        

(X_U1.X_UDRV1_U847.qint)    -.0050    (X_U1.X_UDRV1_U848.INM1)    -.0583        

(X_U1.X_UDRV1_U848.INP1)    0.0000    (X_U1.X_UDRV1_U848.INP2) 250.0E-06        

(X_U1.X_UDRV1_U849.YINT)    0.0000    (X_U1.X_UDRV2_U629.qint) 1.002E-15        

(X_U1.X_UDRV2_U825.YINT)    0.0000    (X_U1.X_UDRV2_U827.YINT)    0.0000        

(X_U1.X_UDRV2_U828.YINT)     .5000    (X_U1.X_UDRV2_U835.YINT)     .5000        

(X_U1.X_UDRV2_U841.YINT)     .5000    (X_U1.X_UDRV2_U842.YINT)    0.0000        

(X_U1.X_UDRV2_U847.qint)    -.0050    (X_U1.X_UDRV2_U848.INM1)    -.0583        

(X_U1.X_UDRV2_U848.INP1)    0.0000    (X_U1.X_UDRV2_U848.INP2) 250.0E-06        

(X_U1.X_UDRV2_U849.YINT)    0.0000    (X_U1.X_U10_U1_U828.YINT)     .5000       

(X_U1.X_U10_U2_U618.YINT)    0.0000   (X_U1.X_U10_U2_U620.YINT)     .5000       

(X_U1.X_U10_U2_U621.YINT)    0.0000   (X_U1.X_U10_U3_U618.YINT)    0.0000       

(X_U1.X_U11_U634.x3.YINT)    0.0000   (X_U1.X_U13_U1_U828.YINT)     .5000       

(X_U1.X_U13_U2_U618.YINT)    0.0000   (X_U1.X_U13_U2_U620.YINT)     .5000       

(X_U1.X_U13_U2_U621.YINT)    0.0000   (X_U1.X_U13_U3_U618.YINT)    0.0000       

(X_U1.X_U14_U690.x3.YINT)    0.0000   (X_U1.X_U18_U144.x3.YINT)    0.0000       

(X_U1.X_U5_U3_U607.YINT1)    0.0000   (X_U1.X_U5_U3_U607.YINT2)    0.0000       

(X_U1.X_U5_U3_U607.YINT3)     .5000   (X_U1.X_U5_U4_U607.YINT1)    0.0000       

(X_U1.X_U5_U4_U607.YINT2)    0.0000   (X_U1.X_U5_U4_U607.YINT3)     .5000       

(X_U1.X_UCLK1_U704.myvss)    0.0000   (X_U1.X_UCLK1_U704.qqqd1)    0.0000       

(X_U1.X_UCLK1_U716.qqqd1)    0.0000   (X_U1.X_UCLK1_U838.myvss)    0.0000       

(X_U1.X_UCLK1_U838.qqqd1)    0.0000   (X_U1.X_UCLK2_U716.myvss)    0.0000       

(X_U1.X_UCLK2_U716.qqqd1)    0.0000   (X_U1.X_UCLK2_U718.qqqd1)    0.0000       

(X_U1.X_UCLK2_U838.myvss)    0.0000   (X_U1.X_UCLK2_U838.qqqd1)    0.0000       

(X_U1.X_UDRV1_U629.myvss)    0.0000   (X_U1.X_UDRV1_U629.qqqd1)    0.0000       

(X_U1.X_UDRV1_U826.YINT1)    0.0000   (X_U1.X_UDRV1_U826.YINT2)    0.0000       

(X_U1.X_UDRV1_U826.YINT3)     .5000   (X_U1.X_UDRV1_U847.myvss)    0.0000       

(X_U1.X_UDRV1_U847.qqqd1)    0.0000   (X_U1.X_UDRV2_U629.myvss)    0.0000       

(X_U1.X_UDRV2_U629.qqqd1)    0.0000   (X_U1.X_UDRV2_U826.YINT1)    0.0000       

(X_U1.X_UDRV2_U826.YINT2)    0.0000   (X_U1.X_UDRV2_U826.YINT3)     .5000       

(X_U1.X_UDRV2_U847.myvss)    0.0000   (X_U1.X_UDRV2_U847.qqqd1)    0.0000       

(X_U1.X_U10_U2_U607.YINT1)     .5000  (X_U1.X_U10_U2_U607.YINT2)     .5000      

(X_U1.X_U10_U2_U607.YINT3)    0.0000  (X_U1.X_U10_U2_U608.YINT1)    0.0000      

(X_U1.X_U10_U2_U608.YINT2)    0.0000  (X_U1.X_U10_U2_U608.YINT3)     .5000      

(X_U1.X_U10_U3_U607.YINT1)     .5000  (X_U1.X_U10_U3_U607.YINT2)     .5000      

(X_U1.X_U10_U3_U607.YINT3)    0.0000  (X_U1.X_U13_U2_U607.YINT1)     .5000      

(X_U1.X_U13_U2_U607.YINT2)     .5000  (X_U1.X_U13_U2_U607.YINT3)    0.0000      

(X_U1.X_U13_U2_U608.YINT1)    0.0000  (X_U1.X_U13_U2_U608.YINT2)    0.0000      

(X_U1.X_U13_U2_U608.YINT3)     .5000  (X_U1.X_U13_U3_U607.YINT1)     .5000      

(X_U1.X_U13_U3_U607.YINT2)     .5000  (X_U1.X_U13_U3_U607.YINT3)    0.0000      

(X_U1.X_UCLK1_U716.clkdel)    0.0000  (X_U1.X_UCLK1_U716.clkint)    0.0000      

(X_U1.X_UCLK2_U718.clkdel)    0.0000  (X_U1.X_UCLK2_U718.clkint)    0.0000      

(X_U1.X_UCLK1_U704.x3.YINT)    0.0000 (X_U1.X_UCLK1_U716.clkdel1)    0.0000     

(X_U1.X_UCLK1_U716.x1.YINT)    0.0000 (X_U1.X_UCLK1_U716.x2.YINT)    0.0000     

(X_U1.X_UCLK1_U838.x3.YINT)    0.0000 (X_U1.X_UCLK2_U716.x3.YINT)    0.0000     

(X_U1.X_UCLK2_U718.clkdel1)    0.0000 (X_U1.X_UCLK2_U718.x1.YINT)    0.0000     

(X_U1.X_UCLK2_U718.x2.YINT)    0.0000 (X_U1.X_UCLK2_U838.x3.YINT)    0.0000     

(X_U1.X_UDRV1_U629.x3.YINT)    0.0000 (X_U1.X_UDRV1_U847.x3.YINT)    0.0000     

(X_U1.X_UDRV2_U629.x3.YINT)    0.0000 (X_U1.X_UDRV2_U847.x3.YINT)    0.0000     

(X_U1.X_UCLK1_U716.x3.YINT1)    0.0000                                          

(X_U1.X_UCLK1_U716.x3.YINT2)    0.0000                                          

(X_U1.X_UCLK1_U716.x3.YINT3)    0.0000                                          

(X_U1.X_UCLK2_U718.x3.YINT1)    0.0000                                          

(X_U1.X_UCLK2_U718.x3.YINT2)    0.0000                                          

(X_U1.X_UCLK2_U718.x3.YINT3)    0.0000                   


  These voltages failed to converge:

    V(SS)                     =     5.062V  \     2.560V
    V(N00772)                 =    19.90mV  \     9.95mV
    V(N00776)                 =   800.00mV  \   400.00mV
    V(VCC)                    =     2.500V  \   625.00mV
    V(N00299)                 =   -14.34mV  \   790.32uV
    V(N00736)                 =   -14.34mV  \   790.32uV
    V(VDDA)                   =     5.000V  \     2.500V
    V(X_U1.U2_N16784762)      =   245.90mV  \   154.20mV
    V(X_U1.U2_N16785551)      =   183.40mV  \    91.70mV
    V(X_U1.VREF1)             =   600.00mV  \   300.00mV
    V(X_U1.VFBI1)             =   366.79mV  \   183.40mV
    V(X_U1.SSCOMPLETE1)       =   963.48mV  \   466.24mV
    V(X_U1.U2_N67984)         =     4.875V  \     2.375V
    V(X_U1.U2_N95734)         =     1.000V  \   500.00mV
    V(X_U1.PGOOD_EN2)         =     1.000V  \   500.00mV
    V(X_U1.U13_TDELAY)        =     1.000V  \   500.00mV
    V(X_U1.U13_TONMIN)        =     1.000V  \   500.00mV
    V(X_U1.U13_U1_N02680)     =     1.000V  \   500.00mV
    V(X_U1.U13_PG)            =     1.000V  \   500.00mV
    V(X_U1.VREF2)             =   600.00mV  \   300.00mV
[...]
    V(X_U1.U98_N16807781)     =     1.000V  \   500.00mV
    V(X_U1.N16816902)         =    2.313uV  \    1.156uV
    V(X_U1.U19_VC)            =    60.78uV  \    1.589uV
    V(X_U1.PGOOD_EN1)         =     1.000V  \   500.00mV
    V(X_U1.U10_TDELAY)        =     1.000V  \   500.00mV
    V(X_U1.U10_TONMIN)        =     1.000V  \   500.00mV
    V(X_U1.U10_U1_N02680)     =     1.000V  \   500.00mV
    V(X_U1.U10_PG)            =     1.000V  \   500.00mV
    V(X_U1.U10_GLITCH)        =     1.000V  \   500.00mV
    V(X_U1.U10_U2_N00780)     =     1.000V  \   500.00mV
    V(X_U1.U14_L_BLNCK_DCM)   =     1.000V  \   500.00mV
    V(X_U1.PH22)              =     1.000V  \   500.00mV
    V(X_U1.U14_ZTH)           =   200.00mV  \   100.00mV
    V(X_U1.U14_N16922955)     =   500.00mV  \   250.00mV
    V(X_U1.U14_N16923004)     =   500.00mV  \   250.00mV
    V(X_U1.INTERLEAVED)       =     1.000V  \   500.00mV
    V(X_U1.U99_N16774936)     =   800.00mV  \   400.00mV
    V(X_U1.U7_N16772254)      =     17.50V  \     8.750V
    V(X_U1.U7_VCC)            =     2.500V  \   625.00mV
    V(X_U1.U7_N16784507)      =     1.000V  \   500.00mV
    V(X_U1.U7_EN_OK2)         =     1.000V  \   500.00mV
    V(X_U1.U7_N16781951)      =     1.000V  \   500.00mV
    V(X_U1.U7_EN_OK1)         =     1.000V  \   500.00mV
    V(X_U1.U7_VCC_OK)         =     1.000V  \   500.00mV
    V(X_U1.U7_N16735566)      =     2.500V  \     1.250V
    V(X_U1.U4_L_BLNCK_DCM)    =     1.000V  \   500.00mV
    V(X_U1.PH21)              =     1.000V  \   500.00mV
    V(X_U1.U4_ZTH)            =   200.00mV  \   100.00mV
    V(X_U1.U4_N16922955)      =   500.00mV  \   250.00mV
    V(X_U1.U4_N16923004)      =   500.00mV  \   250.00mV
    V(X_U1.UCLK1_RAMP1)       =   -156.57V  \    -37.91V
    V(X_U1.U5_N107542)        =     4.875V  \     2.375V
    V(X_U1.UDRV1_CSASLOPE)    =     1.151V  \   575.32mV
    V(X_U1.UDRV1_N16762321)   =     1.000V  \   500.00mV
    V(X_U1.UCLK2_RAMP1)       =   -156.57V  \    -37.91V
    V(X_U1.X_U2_U633.Yint)    =     1.000V  \   500.00mV
    V(X_U1.X_U2_U634.qint)    =    10.00mV  \    5.000mV
    V(X_U1.U2_ADJ_DETECT)     =     1.000V  \   500.00mV
    V(X_U1.X_U2_U634.qqq)     =    5.000mV  \    2.500mV
    V(X_U1.X_U2_U634.qbr)     =     1.000V  \   500.00mV
    V(X_U1.U2_N72189)         =     1.000V  \   500.00mV
    V(X_U1.X_U2_U630.YINT)    =   366.79mV  \   183.40mV
    V(X_U1.U2_CHOOSE_ADJ)     =   152.65mV  \    76.33mV
    V(X_U1.X_U2_U631.Yint)    =     1.000V  \   500.00mV
    V(X_U1.X_U2_U626.YINT)    =   152.65mV  \    76.33mV
    V(X_U1.U13_UVP)           =     1.000V  \   500.00mV
    V(X_U1.U13_OVP_N)         =     1.000V  \   500.00mV
    V(X_U1.X_U13_U1_U828.YINT) =     1.000V  \   500.00mV
    V(X_U1.X_U13_U614.INM1)   =    18.40mV  \   -73.30mV
    V(X_U1.X_U13_U614.INP2)   =    10.20mV  \    5.100mV
    V(X_U1.X_U13_U614.1)      =     1.000V  \   500.00mV
    V(X_U1.X_U13_U2_U620.YINT) =     1.000V  \   500.00mV
    V(X_U1.U13_U2_N00140)     =     1.000V  \   500.00mV
    V(X_U1.X_U13_U2_U608.YINT3) =     1.000V  \   500.00mV
    V(X_U1.U13_U2_N02470)     =     1.000V  \   500.00mV
    V(X_U1.X_U13_U2_U607.YINT1) =     1.000V  \   500.00mV
    V(X_U1.X_U13_U2_U607.YINT2) =     1.000V  \   500.00mV
    V(X_U1.X_U13_U3_U607.YINT1) =     1.000V  \   500.00mV
    V(X_U1.X_U13_U3_U607.YINT2) =     1.000V  \   500.00mV
    V(X_U1.X_U13_U618.YINT)   =     1.000V  \   500.00mV
    V(X_U1.X_U13_U613.INM1)   =    45.40mV  \   -46.30mV
    V(X_U1.X_U13_U613.INP2)   =    10.20mV  \    5.100mV
    V(X_U1.X_U13_U613.1)      =     1.000V  \   500.00mV
    V(X_U1.X_U11_U634.qbr)    =     1.000V  \   500.00mV
    V(X_U1.U11_N75836)        =     1.000V  \   500.00mV
    V(X_U1.X_U11_U633.Yint)   =     1.000V  \   500.00mV
    V(X_U1.X_U11_U630.YINT)   =   366.79mV  \   183.40mV
    V(X_U1.X_U18_U25.YINT)    =     1.000V  \   500.00mV
    V(X_U1.U18_N184411)       =     1.000V  \   500.00mV
    V(X_U1.U18_QCLK2)         =     1.000V  \   500.00mV
    V(X_U1.CLKREF)            =     1.000V  \   500.00mV
    V(X_U1.PLL_DIS)           =     1.000V  \   500.00mV
    V(X_U1.X_U18_U5.YINT)     =     1.000V  \   500.00mV
    V(X_U1.U18_N183909)       =     1.000V  \   500.00mV
    V(X_U1.X_U18_U7.YINT)     =     1.000V  \   500.00mV
    V(X_U1.U18_CLK1_PE)       =     1.000V  \   500.00mV
    V(X_U1.U18_QB_UP)         =     1.000V  \   500.00mV
    V(X_U1.X_U18_U27.YINT1)   =     1.000V  \   500.00mV
    V(X_U1.U18_N184513)       =     1.000V  \   500.00mV
    V(X_U1.X_U18_U27.YINT2)   =     1.000V  \   500.00mV
    V(X_U1.X_U18_U143.meas)   =     0.999V  \    24.53mV
    V(X_U1.X_U18_U143.reset2) =     1.000V  \         0V
    V(X_U1.X_U18_U143.ch)     =     1.000V  \         0V
    V(X_U1.X_U18_U143.reset)  =     1.000V  \         0V
    V(X_U1.X_U18_U8.YINT)     =     1.000V  \   500.00mV
    V(X_U1.U18_QB_DN)         =     1.000V  \   500.00mV
    V(X_U1.X_U18_U28.YINT)    =     1.000V  \   500.00mV
    V(X_U1.U18_N184201)       =     1.000V  \   500.00mV
    V(X_U1.U18_N184319)       =     1.000V  \   500.00mV
    V(X_U1.X_U18_U23.YINT)    =     1.000V  \   500.00mV
    V(X_U1.X_U18_U29.YINT1)   =     1.000V  \   500.00mV
    V(X_U1.X_U18_U29.YINT2)   =     1.000V  \   500.00mV
    V(X_U1.X_U18_U144.qint)   =    10.00mV  \    1.001fV
    V(X_U1.X_U18_U144.qqq)    =    5.000mV  \ 500.42e-18V
    V(X_U1.X_U18_U144.qbr)    =     1.000V  \   500.00mV
    V(X_U1.N187506)           =     1.000V  \   500.00mV
    V(X_U1.X_U18_U4.YINT)     =     1.000V  \   500.00mV
    V(X_U1.X_U18_U30.YINT1)   =     1.000V  \   500.00mV
    V(X_U1.X_U18_U30.YINT2)   =     1.000V  \   500.00mV
    V(X_U1.X_U18_U2.YINT)     =     1.000V  \   500.00mV
    V(X_U1.X_U18_U9.YINT)     =     1.000V  \   500.00mV
    V(X_U1.X_U18_U24.YINT)    =     1.000V  \   500.00mV
    V(X_U1.X_UDRV2_U848.INM1) =  -116.60mV  \   -58.30mV
    V(X_U1.X_UDRV2_U848.INP2) =   500.00uV  \   250.00uV
    V(X_U1.X_UDRV2_U848.1)    =     1.000V  \   500.00mV
    V(X_U1.UDRV2_N16758148)   =     1.000V  \   500.00mV
    V(X_U1.X_UDRV2_U629.qbr)  =     1.000V  \   500.00mV
    V(X_U1.X_UDRV2_U841.YINT) =     1.000V  \   500.00mV
    V(X_U1.UDRV2_N16764046)   =     1.000V  \   500.00mV
    V(X_U1.X_UDRV2_U828.YINT) =     1.000V  \   500.00mV
    V(X_U1.UDRV2_PH2_1)       =     1.000V  \   500.00mV
    V(X_U1.X_UDRV2_U835.YINT) =     1.000V  \   500.00mV
    V(X_U1.UDRV2_PREBIAS)     =     1.000V  \   500.00mV
    V(X_U1.X_UDRV2_U826.YINT3) =     1.000V  \   500.00mV
    V(X_U1.UDRV2_N16761336)   =     1.000V  \   500.00mV
    V(X_U1.X_UDRV2_U847.qint) =   -10.00mV  \   -5.000mV
    V(X_U1.X_UDRV2_U847.qqq)  =   -5.000mV  \   -2.500mV
    V(X_U1.X_UDRV2_U847.qbr)  =     1.000V  \   500.00mV
    V(X_U1.U98_N16785854)     =     1.000V  \   500.00mV
    V(X_U1.X_U98_U676.INM1)   =    -2.000V  \  -750.00mV
    V(X_U1.X_U98_U676.INP2)   =   600.00mV  \   300.00mV
    V(X_U1.X_U98_U676.1)      =     1.000V  \   500.00mV
    V(X_U1.X_U98_U677.Yint)   =     1.000V  \   500.00mV
    V(X_U1.X_U98_U143.meas)   =     1.000V  \   500.00mV
    V(X_U1.X_U98_U143.ch)     =     1.000V  \   500.00mV
    V(X_U1.X_U98_U679.Yint)   =     1.000V  \   500.00mV
    V(X_U1.U10_UVP)           =     1.000V  \   500.00mV
    V(X_U1.U10_OVP_N)         =     1.000V  \   500.00mV
    V(X_U1.X_U10_U1_U828.YINT) =     1.000V  \   500.00mV
    V(X_U1.X_U10_U614.INM1)   =    18.40mV  \   -73.30mV
    V(X_U1.X_U10_U614.INP2)   =    10.20mV  \    5.100mV
    V(X_U1.X_U10_U614.1)      =     1.000V  \   500.00mV
    V(X_U1.X_U10_U2_U620.YINT) =     1.000V  \   500.00mV
    V(X_U1.U10_U2_N00140)     =     1.000V  \   500.00mV
    V(X_U1.X_U10_U2_U608.YINT3) =     1.000V  \   500.00mV
    V(X_U1.U10_U2_N02470)     =     1.000V  \   500.00mV
    V(X_U1.X_U10_U2_U607.YINT1) =     1.000V  \   500.00mV
    V(X_U1.X_U10_U2_U607.YINT2) =     1.000V  \   500.00mV
    V(X_U1.X_U10_U3_U607.YINT1) =     1.000V  \   500.00mV
    V(X_U1.X_U10_U3_U607.YINT2) =     1.000V  \   500.00mV
    V(X_U1.X_U10_U618.YINT)   =     1.000V  \   500.00mV
    V(X_U1.X_U10_U613.INM1)   =    45.40mV  \   -46.30mV
    V(X_U1.X_U10_U613.INP2)   =    10.20mV  \    5.100mV
    V(X_U1.X_U10_U613.1)      =     1.000V  \   500.00mV
    V(X_U1.X_U14_U693.INM1)   =    -1.429V  \    -1.479V
    V(X_U1.X_U14_U693.1)      =     1.000V  \   500.00mV
    V(X_U1.U14_ZCD)           =     1.000V  \   500.00mV
    V(X_U1.U14_N152364)       =     1.000V  \   500.00mV
    V(X_U1.U14_N85373)        =     1.000V  \   500.00mV
    V(X_U1.U14_N86437)        =     1.000V  \   500.00mV
    V(X_U1.X_U14_U657.YINT)   =     1.000V  \   500.00mV
    V(X_U1.U14_N08485)        =     1.000V  \   500.00mV
    V(X_U1.X_U14_U653.YINT)   =     1.000V  \   500.00mV
    V(X_U1.U14_N70409)        =     1.000V  \   500.00mV
    V(X_U1.U14_N16877418)     =     1.000V  \   500.00mV
    V(X_U1.X_U14_U650.YINT)   =     1.000V  \   500.00mV
    V(X_U1.U14_N08737)        =     1.000V  \   500.00mV
    V(X_U1.X_U14_U690.qint)   =    10.00mV  \    5.000mV
    V(X_U1.X_U14_U690.qqq)    =    5.000mV  \    2.500mV
    V(X_U1.X_U14_U690.qbr)    =     1.000V  \   500.00mV
    V(X_U1.U14_LDRV_INTB)     =     1.000V  \   500.00mV
    V(X_U1.X_U14_U688.YINT)   =     1.000V  \   500.00mV
    V(X_U1.X_U14_U652.YINT)   =     1.000V  \   500.00mV
    V(X_U1.U14_N09129)        =     1.000V  \   500.00mV
    V(X_U1.X_U14_U651.YINT)   =     1.000V  \   500.00mV
    V(X_U1.X_U14_U685.YINT)   =     1.000V  \   500.00mV
    V(X_U1.U14_N16837627)     =     1.000V  \   500.00mV
    V(X_U1.X_U14_U655.YINT)   =     1.000V  \   500.00mV
    V(X_U1.X_U14_U648.YINT)   =     1.000V  \   500.00mV
    V(X_U1.X_U7_U626.YINT)    =     17.50V  \     8.750V
    V(X_U1.U7_VIN_OK)         =     1.000V  \   500.00mV
    V(X_U1.X_U7_U613.INP2)    =    45.00mV  \    22.50mV
    V(X_U1.X_U7_U613.1)       =     1.000V  \   500.00mV
    V(X_U1.X_U7_U614.INP2)    =   600.00mV  \   300.00mV
    V(X_U1.X_U7_U614.1)       =     1.000V  \   500.00mV
    V(X_U1.X_U7_U615.INP2)    =    45.00mV  \    22.50mV
    V(X_U1.X_U7_U615.1)       =     1.000V  \   500.00mV
    V(X_U1.X_U7_U627.INP2)    =   600.00mV  \   300.00mV
    V(X_U1.X_U7_U627.1)       =     1.000V  \   500.00mV
    V(X_U1.X_U7_U620.INP2)    =   100.00mV  \    50.00mV
    V(X_U1.X_U7_U620.1)       =     1.000V  \   500.00mV
    V(X_U1.U7_VCCX_OK)        =     1.000V  \   500.00mV
    V(X_U1.X_U7_U621.YINT)    =     2.500V  \     1.250V
    V(X_U1.X_U4_U693.INM1)    =    -1.429V  \    -1.479V
    V(X_U1.X_U4_U693.1)       =     1.000V  \   500.00mV
    V(X_U1.U4_ZCD)            =     1.000V  \   500.00mV
    V(X_U1.U4_N152364)        =     1.000V  \   500.00mV
    V(X_U1.U4_N85373)         =     1.000V  \   500.00mV
    V(X_U1.U4_N86437)         =     1.000V  \   500.00mV
    V(X_U1.X_U4_U657.YINT)    =     1.000V  \   500.00mV
    V(X_U1.U4_N08485)         =     1.000V  \   500.00mV
    V(X_U1.X_U4_U653.YINT)    =     1.000V  \   500.00mV
    V(X_U1.U4_N70409)         =     1.000V  \   500.00mV
    V(X_U1.U4_N16877418)      =     1.000V  \   500.00mV
    V(X_U1.X_U4_U650.YINT)    =     1.000V  \   500.00mV
    V(X_U1.U4_N08737)         =     1.000V  \   500.00mV
    V(X_U1.X_U4_U690.qint)    =    10.00mV  \    5.000mV
    V(X_U1.X_U4_U690.qqq)     =    5.000mV  \    2.500mV
    V(X_U1.X_U4_U690.qbr)     =     1.000V  \   500.00mV
    V(X_U1.U4_LDRV_INTB)      =     1.000V  \   500.00mV
    V(X_U1.X_U4_U688.YINT)    =     1.000V  \   500.00mV
    V(X_U1.X_U4_U652.YINT)    =     1.000V  \   500.00mV
    V(X_U1.U4_N09129)         =     1.000V  \   500.00mV
    V(X_U1.X_U4_U651.YINT)    =     1.000V  \   500.00mV
    V(X_U1.X_U4_U685.YINT)    =     1.000V  \   500.00mV
    V(X_U1.U4_N16837627)      =     1.000V  \   500.00mV
    V(X_U1.X_U4_U655.YINT)    =     1.000V  \   500.00mV
    V(X_U1.X_U4_U648.YINT)    =     1.000V  \   500.00mV
    V(X_U1.X_UCLK1_U704.qint) =   -10.00mV  \   -5.000mV
    V(X_U1.UCLK1_N148013)     =     1.000V  \   500.00mV
    V(X_U1.X_UCLK1_U704.qqq)  =   -5.000mV  \   -2.500mV
    V(X_U1.X_UCLK1_U704.qbr)  =     1.000V  \   500.00mV
    V(X_U1.N148020)           =     1.000V  \   500.00mV
    V(X_U1.X_UCLK1_U703.YINT) =     1.000V  \   500.00mV
    V(X_U1.X_UCLK1_U837.YINT) =     1.000V  \   500.00mV
    V(X_U1.UCLK1_N16910733)   =     1.000V  \   500.00mV
    V(X_U1.X_UCLK1_U716.qbr)  =     1.000V  \   500.00mV
    V(X_U1.N16886382)         =     1.000V  \   500.00mV
    V(X_U1.X_UCLK1_U698.YINT) =     1.000V  \   500.00mV
    V(X_U1.UCLK1_DISCHARGEB)  =     1.000V  \   500.00mV
    V(X_U1.UCLK1_N142689)     =     1.000V  \   500.00mV
    V(X_U1.X_UCLK1_U690.YINT) =     1.000V  \   500.00mV
    V(X_U1.UCLK1_N16941562)   =     1.000V  \   500.00mV
    V(X_U1.X_UCLK1_U691.YINT) =     1.000V  \   500.00mV
    V(X_U1.UCLK1_N16941559)   =     1.000V  \   500.00mV
    V(X_U1.X_UCLK1_U713.YINT) =     1.000V  \   500.00mV
    V(X_U1.UCLK1_N105603)     =     1.000V  \   500.00mV
    V(X_U1.X_UCLK1_U146.YINT) =     1.000V  \   500.00mV
    V(X_U1.X_UCLK1_U838.qint) =   -10.00mV  \   -5.000mV
    V(X_U1.X_UCLK1_U838.qqq)  =   -5.000mV  \   -2.500mV
    V(X_U1.X_UCLK1_U838.qbr)  =     1.000V  \   500.00mV
    V(X_U1.N16916404)         =     1.000V  \   500.00mV
    V(X_U1.X_UCLK1_U836.YINT) =     1.000V  \   500.00mV
    V(X_U1.X_U5_U611.YINT1)   =     1.000V  \   500.00mV
    V(X_U1.U5_N16864724)      =     1.000V  \   500.00mV
    V(X_U1.X_U5_U611.YINT2)   =     1.000V  \   500.00mV
    V(X_U1.X_U5_U610.YINT3)   =     1.000V  \   500.00mV
    V(X_U1.U5_N107559)        =     1.000V  \   500.00mV
    V(X_U1.X_U5_U31.qbr)      =     1.000V  \   500.00mV
    V(X_U1.U5_HICCUP2_N)      =     1.000V  \   500.00mV
    V(X_U1.X_U5_U629.Yint)    =     1.000V  \   500.00mV
    V(X_U1.U5_U4_N04955)      =     1.000V  \   500.00mV
    V(X_U1.X_U5_U4_U607.YINT3) =     1.000V  \   500.00mV
    V(X_U1.U5_U3_N04955)      =     1.000V  \   500.00mV
    V(X_U1.X_U5_U3_U607.YINT3) =     1.000V  \   500.00mV
    V(X_U1.X_U5_U642.reset2)  =     1.000V  \   500.00mV
    V(X_U1.X_U5_U642.reset)   =     1.000V  \   500.00mV
    V(X_U1.X_U5_U30.qbr)      =     1.000V  \   500.00mV
    V(X_U1.U5_HICCUP1_N)      =     1.000V  \   500.00mV
    V(X_U1.U5_N16652752)      =     1.000V  \   500.00mV
    V(X_U1.X_U5_U641.qbr)     =     1.000V  \   500.00mV
    V(X_U1.N16682465)         =     1.000V  \   500.00mV
    V(X_U1.U5_N133651)        =     1.000V  \   500.00mV
    V(X_U1.X_U5_U640.qbr)     =     1.000V  \   500.00mV
    V(X_U1.N16669093)         =     1.000V  \   500.00mV
    V(X_U1.X_U5_U614.YINT3)   =     1.000V  \   500.00mV
    V(X_U1.X_U5_U639.reset2)  =     1.000V  \   500.00mV
    V(X_U1.X_U5_U639.reset)   =     1.000V  \   500.00mV
    V(X_U1.X_U5_U607.YINT3)   =     1.000V  \   500.00mV
    V(X_U1.X_UDRV1_U848.INM1) =  -116.60mV  \   -58.30mV
    V(X_U1.X_UDRV1_U848.INP2) =   500.00uV  \   250.00uV
    V(X_U1.X_UDRV1_U848.1)    =     1.000V  \   500.00mV
    V(X_U1.UDRV1_N16758148)   =     1.000V  \   500.00mV
    V(X_U1.X_UDRV1_U629.qbr)  =     1.000V  \   500.00mV
    V(X_U1.X_UDRV1_U841.YINT) =     1.000V  \   500.00mV
    V(X_U1.UDRV1_N16764046)   =     1.000V  \   500.00mV
    V(X_U1.X_UDRV1_U828.YINT) =     1.000V  \   500.00mV
    V(X_U1.UDRV1_PH2_1)       =     1.000V  \   500.00mV
    V(X_U1.X_UDRV1_U835.YINT) =     1.000V  \   500.00mV
    V(X_U1.UDRV1_PREBIAS)     =     1.000V  \   500.00mV
    V(X_U1.X_UDRV1_U826.YINT3) =     1.000V  \   500.00mV
    V(X_U1.UDRV1_N16761336)   =     1.000V  \   500.00mV
    V(X_U1.X_UDRV1_U847.qint) =   -10.00mV  \   -5.000mV
    V(X_U1.X_UDRV1_U847.qqq)  =   -5.000mV  \   -2.500mV
    V(X_U1.X_UDRV1_U847.qbr)  =     1.000V  \   500.00mV
    V(X_U1.X_UCLK2_U690.YINT) =     1.000V  \   500.00mV
    V(X_U1.UCLK2_N16833701)   =     1.000V  \   500.00mV
    V(X_U1.X_UCLK2_U691.YINT) =     1.000V  \   500.00mV
    V(X_U1.UCLK2_N16833698)   =     1.000V  \   500.00mV
    V(X_U1.X_UCLK2_U713.YINT) =     1.000V  \   500.00mV
    V(X_U1.UCLK2_DISCHARGEB)  =     1.000V  \   500.00mV
    V(X_U1.UCLK2_SYNCCLKOUT)  =     1.000V  \   500.00mV
    V(X_U1.UCLK2_N105603)     =     1.000V  \   500.00mV
    V(X_U1.X_UCLK2_U698.YINT) =     1.000V  \   500.00mV
    V(X_U1.UCLK2_N142689)     =     1.000V  \   500.00mV
    V(X_U1.X_UCLK2_U716.qint) =   -10.00mV  \   -5.000mV
    V(X_U1.UCLK2_N16796127)   =     1.000V  \   500.00mV
    V(X_U1.X_UCLK2_U716.qqq)  =   -5.000mV  \   -2.500mV
    V(X_U1.X_UCLK2_U716.qbr)  =     2.000V  \     1.000V
    V(X_U1.N16783791)         =     2.000V  \     1.000V
    V(X_U1.X_UCLK2_U146.YINT) =     1.000V  \   500.00mV
    V(X_U1.X_UCLK2_U718.qbr)  =     1.000V  \   500.00mV
    V(X_U1.N16807997)         =     1.000V  \   500.00mV
    V(X_U1.X_UCLK2_U838.qbr)  =     1.000V  \   500.00mV
    V(X_U1.N16824422)         =     1.000V  \   500.00mV
    V(X_U1.X_UCLK2_U717.YINT) =     1.000V  \   500.00mV
    V(X_U1.X_UCLK2_U836.YINT) =     1.000V  \   500.00mV

  These supply currents failed to converge:

    I(X_U1.E_U2_E3)           =    4.817nA  \    2.406nA
    I(X_U1.E_U13_ABM6)        =   -1.001nA  \  -500.50pA
    I(X_U1.E_U11_E3)          =    48.17pA  \    24.06pA
    I(X_U1.E_U10_ABM6)        =   -1.001nA  \  -500.50pA
    I(X_U1.E_U97_ABM8)        =   -1.001nA  \  -500.50pA
    I(X_U1.E_U99_ABM1)        =   -5.063uA  \   -2.532uA
    I(X_U1.E_U7_ABM7)         =    89.96uA  \    44.99uA
    I(X_U1.E_U7_ABM3)         =   909.50fA  \    5.230pA
    I(X_U1.X_U2_U633.E_ABM)   =  -963.48pA  \  -466.24pA
    I(X_U1.X_U13_U1_U828.E_ABMGATE) =   -15.00nA  \   -5.000nA
    I(X_U1.X_U11_U633.E_ABM)  =  -963.48pA  \  -466.24pA
    I(X_U1.X_U18_U143.e_abm1) =   -12.70uA  \   490.53uA
    I(X_U1.X_U18_U4.E_ABMGATE) =   -2.002nA  \   -1.001nA
    I(X_U1.X_UDRV2_U629.eqb)  =   -1.000uA  \  -500.00nA
    I(X_U1.X_U98_U143.e_abm1) =   -1.000nA  \  -500.00pA
    I(X_U1.X_U98_U143.e_abm3) =   -1.001nA  \  -500.50pA
    I(X_U1.X_U10_U1_U828.E_ABMGATE) =   -15.00nA  \   -5.000nA
    I(X_U1.X_U14_U688.E_ABMGATE) =   -1.001nA  \  -500.50pA
    I(X_U1.X_U14_U648.E_ABMGATE) =   -1.001nA  \  -500.50pA
    I(X_U1.X_U4_U688.E_ABMGATE) =   -1.001nA  \  -500.50pA
    I(X_U1.X_U4_U648.E_ABMGATE) =   -1.001nA  \  -500.50pA
    I(X_U1.X_UCLK1_U698.E_ABMGATE) =   -1.001nA  \  -500.50pA
    I(X_U1.X_UDRV1_U629.eqb)  =   -1.000uA  \  -500.00nA
    I(X_U1.X_UCLK2_U698.E_ABMGATE) =   -1.001nA  \  -500.50pA
    I(X_U1.V_U2_V4)           =    4.817nA  \    2.406nA
    I(X_U1.V_U13_V5)          =    5.000nA  \ -100.00e-18A
    I(X_U1.V_U11_V4)          =    48.17pA  \    24.06pA
    I(X_U1.V_U18_V5)          =  -199.96uA  \  -159.46nA
    I(X_U1.V_U98_V13)         =   -1.201pA  \   -3.001pA
    I(X_U1.V_U19_V1)          =  -154.13uA  \   -3.953uA
    I(X_U1.V_U10_V5)          =    5.000nA  \ -100.00e-18A
    I(X_U1.V_UEA2_VCLAMP_HIGH) =    99.98uA  \    49.98uA
    I(X_U1.V_U97_V2)          =   -16.00pA  \   -40.00pA
    I(X_U1.V_U97_V1)          =   -16.00pA  \   -40.00pA
    I(X_U1.V_UCLK1_V45)       =  -492.57nA  \  -123.06nA
    I(X_U1.V_UCLK1_V6)        =    90.50uA  \    40.50uA
    I(X_U1.V_UCLK2_V45)       =    4.132uA  \    1.033uA
    I(X_U1.V_UCLK2_V6)        =    90.50uA  \    40.50uA
    I(X_U1.V_UEA1_VCLAMP_HIGH) =    99.98uA  \    49.98uA
    I(X_U1.X_U99_H1.VH_U99_H1) =    5.063uA  \    2.532uA

  These devices failed to converge:
    X_U1.D_U2_D62 X_U1.D_U2_D63 X_U1.D_U11_D62 X_U1.D_U11_D63 X_U1.D_U18_D14 
    X_U1.D_UEA2_D10 X_U1.D_UCLK1_D10 X_U1.D_UCLK2_D10 X_U1.D_UEA1_D10 
    X_U1.E_U18_ABM2 X_U1.E_U98_ABM7 X_U1.X_U2_U5.E_ABMGATE X_U1.X_U13_U614.EOUT 
    X_U1.X_U13_U613.EOUT X_U1.X_U11_U5.E_ABMGATE X_U1.X_U18_U143.e_abm1 
    X_U1.X_U18_U143.e_abm2 X_U1.X_UDRV2_U5.E_ABM X_U1.X_U98_U143.e_abm3 
    X_U1.X_U10_U614.EOUT X_U1.X_U10_U613.EOUT X_U1.X_U14_U685.E_ABMGATE 
    X_U1.X_U14_U613.E_ABMGATE X_U1.X_U4_U685.E_ABMGATE X_U1.X_U4_U613.E_ABMGATE 
    X_U1.X_UDRV1_U5.E_ABM X_U1.G_U18_ABMII1 X_U1.X_U18_U144.gq 

**** Interrupt ****
